sdf/inactives_sanitized.sdf:1
                    3D
 Schrodinger Suite 2020-1.
 46 49  0  0  1  0            999 V2000
   -0.2302   -2.3517   -0.1166 C   0  0  0  0  0  0
   -3.0879   -2.3872    0.0284 C   0  0  0  0  0  0
   -2.4133   -1.0896   -0.0682 C   0  0  0  0  0  0
   -0.9371   -1.0587   -0.1259 C   0  0  0  0  0  0
   -0.3411    0.1666   -0.1880 C   0  0  0  0  0  0
   -1.0808    1.3582   -0.2022 N   0  0  0  0  0  0
   -2.4598    1.3812   -0.2345 C   0  0  0  0  0  0
   -3.0931    0.0778   -0.0965 C   0  0  0  0  0  0
   -3.1420    2.3946   -0.4037 O   0  0  0  0  0  0
   -0.4833    2.4989    0.3647 N   0  0  0  0  0  0
    1.1443    0.2956   -0.2413 C   0  0  0  0  0  0
    1.9301   -0.1029    0.8441 C   0  0  0  0  0  0
    3.3124    0.0546    0.8057 C   0  0  0  0  0  0
    3.9321    0.6158   -0.3110 C   0  0  0  0  0  0
    3.1449    1.0103   -1.4037 C   0  0  0  0  0  0
    1.7630    0.8481   -1.3665 C   0  0  0  0  0  0
    5.3063    0.7469   -0.2530 O   0  0  0  0  0  0
    5.9937    1.3442   -1.3473 C   0  0  0  0  0  0
   -0.9330   -3.5025   -0.0544 C   0  0  0  0  0  0
   -2.3553   -3.5203    0.0222 C   0  0  0  0  0  0
   -2.7710   -4.7829    0.1378 O   0  0  0  0  0  0
   -1.5950   -5.5061    0.4268 C   0  0  0  0  0  0
   -0.4772   -4.7550    0.0081 O   0  0  0  0  0  0
   -0.0351    3.5267   -0.4597 C   0  0  0  0  0  0
    0.9604    4.1816    0.1683 O   0  0  0  0  0  0
   -0.4447    3.7853   -1.5945 O   0  0  0  0  0  0
    1.6681    5.2286   -0.4834 C   0  0  0  0  0  0
    2.8033    5.7147    0.4226 C   0  0  0  0  0  0
    0.8479   -2.3934   -0.1557 H   0  0  0  0  0  0
   -4.1640   -2.4348    0.1116 H   0  0  0  0  0  0
   -4.1726    0.0607   -0.0469 H   0  0  0  0  0  0
    0.0674    2.2564    1.1752 H   0  0  0  0  0  0
    1.4684   -0.5274    1.7238 H   0  0  0  0  0  0
    3.9065   -0.2546    1.6533 H   0  0  0  0  0  0
    3.5856    1.4473   -2.2867 H   0  0  0  0  0  0
    1.1691    1.1645   -2.2121 H   0  0  0  0  0  0
    7.0594    1.3879   -1.1228 H   0  0  0  0  0  0
    5.6525    2.3653   -1.5252 H   0  0  0  0  0  0
    5.8728    0.7612   -2.2616 H   0  0  0  0  0  0
   -1.5320   -5.7467    1.4900 H   0  0  0  0  0  0
   -1.6152   -6.4432   -0.1306 H   0  0  0  0  0  0
    2.0790    4.8708   -1.4290 H   0  0  0  0  0  0
    0.9894    6.0524   -0.7097 H   0  0  0  0  0  0
    3.3623    6.5191   -0.0554 H   0  0  0  0  0  0
    3.5037    4.9085    0.6433 H   0  0  0  0  0  0
    2.4174    6.0946    1.3691 H   0  0  0  0  0  0
  1 19  2  0  0  0
  1  4  1  0  0  0
  1 29  1  0  0  0
  2  3  1  0  0  0
  2 20  2  0  0  0
  2 30  1  0  0  0
  3  4  1  0  0  0
  3  8  2  0  0  0
  4  5  2  0  0  0
  5 11  1  0  0  0
  5  6  1  0  0  0
  6  7  1  0  0  0
  6 10  1  0  0  0
  7  8  1  0  0  0
  7  9  2  0  0  0
  8 31  1  0  0  0
 10 24  1  0  0  0
 10 32  1  0  0  0
 11 16  1  0  0  0
 11 12  2  0  0  0
 12 13  1  0  0  0
 12 33  1  0  0  0
 13 14  2  0  0  0
 13 34  1  0  0  0
 14 15  1  0  0  0
 14 17  1  0  0  0
 15 16  2  0  0  0
 15 35  1  0  0  0
 16 36  1  0  0  0
 17 18  1  0  0  0
 18 37  1  0  0  0
 18 38  1  0  0  0
 18 39  1  0  0  0
 19 20  1  0  0  0
 19 23  1  0  0  0
 20 21  1  0  0  0
 21 22  1  0  0  0
 22 23  1  0  0  0
 22 40  1  0  0  0
 22 41  1  0  0  0
 24 25  1  0  0  0
 24 26  2  0  0  0
 25 27  1  0  0  0
 27 28  1  0  0  0
 27 42  1  0  0  0
 27 43  1  0  0  0
 28 44  1  0  0  0
 28 45  1  0  0  0
 28 46  1  0  0  0
M  END
> <chembl_id>
CHEMBL594622

> <chembl_pref_name>
None

> <s_m_source_file>
sdf/inactives_sanitized.sdf

> <i_m_source_file_index>
1

> <i_lp_mmshare_version>
49012

> <i_m_ct_stereo_status>
1

> <i_f3d_flags>
0

> <s_epik_input>
TzFbQ0gyXU9jKFtjSF0yKWMxW2NIXWMoYzIzKWMobihjKD1PKVtjSF0zKVtOSF1DKD1PKU9bQ0gyXVtDSDNdKS1jNFtjSF1bY0hdYyhbY0hdW2NIXTQpT1tDSDNd

> <s_epik_cmdline>
J2VwaWtfcHl0aG9uJywgJy1waHQnLCAnMC41JywgJy1waCcsICc3LjUnLCAnLW50JywgJy1tYScsICcyMDAnLCAnLWltYWUnLCAnPGluZmlsZS5tYWU+JywgJy1vbWFlJywgJzxvdXRmaWxlLm1hZT4n

> <r_lp_tautomer_probability>
1

> <r_epik_Ionization_Penalty>
  0.0000

> <r_epik_Ionization_Penalty_Charging>
  0.0000

> <r_epik_Ionization_Penalty_Neutral>
  0.0000

> <r_epik_State_Penalty>
 -0.0000

> <r_epik_Charging_Adjusted_Penalty>
7.81186179564263e-08

> <i_epik_Tot_Q>
0

> <i_epik_Tot_abs_Q>
0

> <s_epik_Chemistry_Notes>
This compound has an ester and may undergo hydrolysis at high or low pH. This compound contains an acetal/aminal-like group ( X-CH(R)-Y where X, Y are N, S, or O) that may be acid/base labile, releasing an aldehyde.

> <s_lp_Force_Field>
OPLS3e

> <r_lp_Energy>
67.574202

> <b_lp_Chiralities_Consistent>
1

> <s_lp_Variant>
sdf/inactives_sanitized.sdf:1-1

$$$$
sdf/inactives_sanitized.sdf:2
                    3D
 Schrodinger Suite 2020-1.
 82 84  0  0  1  0            999 V2000
   -0.6351    0.9312    0.5597 C   0  0  0  0  0  0
    0.1900    0.2488   -0.2535 N   0  0  0  0  0  0
   -2.5766   -0.1590    2.8571 C   0  0  0  0  0  0
   -2.1266    0.5216    0.4957 C   0  0  1  0  0  0
   -2.8299    0.6849    1.7808 N   0  0  0  0  0  0
    2.0207    0.6107   -1.7939 C   0  0  0  0  0  0
    1.6512    0.4058   -0.3226 C   0  0  2  0  0  0
   -0.2730    1.8428    1.3059 O   0  0  0  0  0  0
   -1.8041   -1.1212    2.8672 O   0  0  0  0  0  0
   -3.3162    0.2459    3.9066 O   0  0  0  0  0  0
   -2.8631    1.3435   -0.5970 C   0  0  0  0  0  0
   -6.0571    1.6221    6.7602 N   0  0  0  0  0  0
    1.2043    0.6779   -2.7178 O   0  0  0  0  0  0
    2.3974   -0.8030    0.3021 C   0  0  0  0  0  0
   -4.2229    0.1408    6.1783 C   0  0  0  0  0  0
   -3.2356   -0.4243    5.1617 C   0  0  0  0  0  0
    2.0086   -1.1131    1.7636 C   0  0  0  0  0  0
    4.0961   -0.7918   -2.8236 S   0  0  0  0  0  0
    3.5096    0.7747   -2.1106 C   0  0  0  0  0  0
    2.8529   -2.2239    2.3714 C   0  0  0  0  0  0
   -5.1751    1.1203    5.8580 C   0  0  0  0  0  0
    7.1690   -1.3544    0.7298 C   0  0  0  0  0  0
   -4.3175    0.9016   -0.8915 C   0  0  0  0  0  0
   -6.0050    1.1451    8.0297 C   0  0  0  0  0  0
   -4.1934   -0.3333    7.4944 C   0  0  0  0  0  0
    5.8892   -0.5004   -2.8941 C   0  0  0  0  0  0
    6.4865   -1.5625   -0.6142 C   0  0  0  0  0  0
    2.5983   -3.5557    2.0323 C   0  0  0  0  0  0
    3.8869   -1.9125    3.2582 C   0  0  0  0  0  0
    8.3683   -2.0111    1.0191 C   0  0  0  0  0  0
    6.5894   -0.5050    1.6763 C   0  0  0  0  0  0
    6.6121   -0.3384   -1.5438 C   0  0  0  0  0  0
   -4.4033   -0.5585   -1.3853 C   0  0  0  0  0  0
   -5.0092    1.8844   -1.8607 C   0  0  0  0  0  0
   -5.0923    0.1712    8.4364 C   0  0  0  0  0  0
    4.6703   -2.9294    3.7978 C   0  0  0  0  0  0
    8.9840   -1.8205    2.2536 C   0  0  0  0  0  0
    7.2058   -0.3140    2.9099 C   0  0  0  0  0  0
    3.3803   -4.5727    2.5740 C   0  0  0  0  0  0
    4.4141   -4.2546    3.4525 C   0  0  0  0  0  0
    8.3998   -0.9735    3.1932 C   0  0  0  0  0  0
   -0.1902   -0.5049   -0.8079 H   0  0  0  0  0  0
   -2.1714   -0.5330    0.2133 H   0  0  0  0  0  0
   -3.4045    1.5035    1.9175 H   0  0  0  0  0  0
    1.9582    1.3056    0.2154 H   0  0  0  0  0  0
   -2.8611    2.3970   -0.3084 H   0  0  0  0  0  0
   -2.3033    1.2991   -1.5337 H   0  0  0  0  0  0
    2.2339   -1.7033   -0.2942 H   0  0  0  0  0  0
    3.4737   -0.6296    0.2746 H   0  0  0  0  0  0
   -2.2239   -0.3197    5.5576 H   0  0  0  0  0  0
   -3.4383   -1.4887    5.0305 H   0  0  0  0  0  0
    2.0895   -0.2109    2.3724 H   0  0  0  0  0  0
    0.9594   -1.4064    1.8250 H   0  0  0  0  0  0
    4.0681    1.0270   -1.2101 H   0  0  0  0  0  0
    3.6622    1.5829   -2.8261 H   0  0  0  0  0  0
   -5.2534    1.5263    4.8604 H   0  0  0  0  0  0
   -4.8747    0.9581    0.0445 H   0  0  0  0  0  0
   -6.7163    1.5596    8.7290 H   0  0  0  0  0  0
   -3.4784   -1.0886    7.7875 H   0  0  0  0  0  0
    6.3290   -1.3373   -3.4378 H   0  0  0  0  0  0
    6.0625    0.3838   -3.5087 H   0  0  0  0  0  0
    6.8945   -2.4473   -1.1055 H   0  0  0  0  0  0
    5.4383   -1.7950   -0.4244 H   0  0  0  0  0  0
    1.8003   -3.8021    1.3470 H   0  0  0  0  0  0
    4.0907   -0.8852    3.5236 H   0  0  0  0  0  0
    8.8234   -2.6685    0.2925 H   0  0  0  0  0  0
    5.6611    0.0032    1.4587 H   0  0  0  0  0  0
    6.2350    0.5502   -1.0374 H   0  0  0  0  0  0
    7.6681   -0.1421   -1.7341 H   0  0  0  0  0  0
   -3.4400   -0.9278   -1.7381 H   0  0  0  0  0  0
   -5.1128   -0.6845   -2.2032 H   0  0  0  0  0  0
   -4.7298   -1.2167   -0.5795 H   0  0  0  0  0  0
   -5.2105    1.4408   -2.8359 H   0  0  0  0  0  0
   -4.4059    2.7747   -2.0412 H   0  0  0  0  0  0
   -5.9630    2.2219   -1.4541 H   0  0  0  0  0  0
   -5.0817   -0.1846    9.4561 H   0  0  0  0  0  0
    5.4752   -2.6913    4.4776 H   0  0  0  0  0  0
    9.9102   -2.3274    2.4818 H   0  0  0  0  0  0
    6.7579    0.3392    3.6442 H   0  0  0  0  0  0
    3.1878   -5.6026    2.3120 H   0  0  0  0  0  0
    5.0227   -5.0431    3.8703 H   0  0  0  0  0  0
    8.8773   -0.8268    4.1508 H   0  0  0  0  0  0
  1  2  1  0  0  0
  1  4  1  0  0  0
  1  8  2  0  0  0
  2  7  1  0  0  0
  2 42  1  0  0  0
  3  5  1  0  0  0
  3  9  2  0  0  0
  3 10  1  0  0  0
  4  5  1  0  0  0
  4 11  1  0  0  0
  4 43  1  0  0  0
  5 44  1  0  0  0
  6  7  1  0  0  0
  6 13  2  0  0  0
  6 19  1  0  0  0
  7 14  1  0  0  0
  7 45  1  0  0  0
 10 16  1  0  0  0
 11 23  1  0  0  0
 11 46  1  0  0  0
 11 47  1  0  0  0
 12 21  2  0  0  0
 12 24  1  0  0  0
 14 17  1  0  0  0
 14 48  1  0  0  0
 14 49  1  0  0  0
 15 16  1  0  0  0
 15 21  1  0  0  0
 15 25  2  0  0  0
 16 50  1  0  0  0
 16 51  1  0  0  0
 17 20  1  0  0  0
 17 52  1  0  0  0
 17 53  1  0  0  0
 18 19  1  0  0  0
 18 26  1  0  0  0
 19 54  1  0  0  0
 19 55  1  0  0  0
 20 28  2  0  0  0
 20 29  1  0  0  0
 21 56  1  0  0  0
 22 27  1  0  0  0
 22 30  2  0  0  0
 22 31  1  0  0  0
 23 33  1  0  0  0
 23 34  1  0  0  0
 23 57  1  0  0  0
 24 35  2  0  0  0
 24 58  1  0  0  0
 25 35  1  0  0  0
 25 59  1  0  0  0
 26 32  1  0  0  0
 26 60  1  0  0  0
 26 61  1  0  0  0
 27 32  1  0  0  0
 27 62  1  0  0  0
 27 63  1  0  0  0
 28 39  1  0  0  0
 28 64  1  0  0  0
 29 36  2  0  0  0
 29 65  1  0  0  0
 30 37  1  0  0  0
 30 66  1  0  0  0
 31 38  2  0  0  0
 31 67  1  0  0  0
 32 68  1  0  0  0
 32 69  1  0  0  0
 33 70  1  0  0  0
 33 71  1  0  0  0
 33 72  1  0  0  0
 34 73  1  0  0  0
 34 74  1  0  0  0
 34 75  1  0  0  0
 35 76  1  0  0  0
 36 40  1  0  0  0
 36 77  1  0  0  0
 37 41  2  0  0  0
 37 78  1  0  0  0
 38 41  1  0  0  0
 38 79  1  0  0  0
 39 40  2  0  0  0
 39 80  1  0  0  0
 40 81  1  0  0  0
 41 82  1  0  0  0
M  END
> <chembl_id>
CHEMBL321974

> <chembl_pref_name>
None

> <i_m_ct_stereo_status>
1

> <s_m_source_file>
sdf/inactives_sanitized.sdf

> <i_m_source_file_index>
2

> <i_lp_mmshare_version>
49012

> <i_f3d_flags>
0

> <s_epik_input>
W2NIXTFbY0hdW2NIXW5bY0hdYzFbQ0gyXU9DKD1PKVtOSF1bQ0BASF0oW0NIMl1bQ0hdKFtDSDNdKVtDSDNdKUMoPU8pW05IXVtDQEBIXShbQ0gyXVtDSDJdYzJbY0hdW2NIXVtjSF1bY0hdW2NIXTIpQyg9TylbQ0gyXVNbQ0gyXVtDSDJdW0NIMl1jM1tjSF1bY0hdW2NIXVtjSF1bY0hdMw==

> <s_epik_cmdline>
J2VwaWtfcHl0aG9uJywgJy1waHQnLCAnMC41JywgJy1waCcsICc3LjUnLCAnLW50JywgJy1tYScsICcyMDAnLCAnLWltYWUnLCAnPGluZmlsZS5tYWU+JywgJy1vbWFlJywgJzxvdXRmaWxlLm1hZT4n

> <r_lp_tautomer_probability>
1

> <r_epik_Ionization_Penalty>
  0.0015

> <r_epik_Ionization_Penalty_Charging>
  0.0000

> <r_epik_Ionization_Penalty_Neutral>
  0.0015

> <r_epik_State_Penalty>
 -0.0000

> <r_epik_Charging_Adjusted_Penalty>
0

> <i_epik_Tot_Q>
0

> <i_epik_Tot_abs_Q>
0

> <s_epik_Chemistry_Notes>
This compound has an ester and may undergo hydrolysis at high or low pH.

> <s_lp_Force_Field>
OPLS3e

> <r_lp_Energy>
46.188267

> <b_lp_Chiralities_Consistent>
1

> <s_lp_Variant>
sdf/inactives_sanitized.sdf:2-1

$$$$
sdf/inactives_sanitized.sdf:3
                    3D
 Schrodinger Suite 2020-1.
 90 93  0  0  1  0            999 V2000
   -1.2074    1.1938   -0.9011 C   0  0  0  0  0  0
   -0.5774   -0.1794   -0.7004 C   0  0  2  0  0  0
    1.4676   -0.0664    0.7520 C   0  0  0  0  0  0
    0.8410    0.0910   -0.4278 N   0  0  0  0  0  0
   -1.4333    2.0341    0.4081 C   0  0  0  0  0  0
    3.7161   -0.0070    3.1456 C   0  0  0  0  0  0
    2.9726    0.2949    0.7476 C   0  0  2  0  0  0
    3.7646   -0.3744    1.8034 N   0  0  0  0  0  0
    0.8222    2.9267    4.6853 N   0  3  1  0  0  0
    1.5023    4.0714    6.8631 C   0  0  0  0  0  0
    0.7453    4.2163    5.5408 C   0  0  0  0  0  0
   -1.5459    1.6596   -1.9916 O   0  0  0  0  0  0
   -0.7071   -1.0871   -1.9514 C   0  0  0  0  0  0
    1.8572    2.8105    7.3914 C   0  0  0  0  0  0
    0.9047   -0.4348    1.7843 O   0  0  0  0  0  0
    3.0954    0.9427    3.6271 O   0  0  0  0  0  0
   -2.0879    1.5886    1.3506 O   0  0  0  0  0  0
    1.8235    5.2225    7.5935 C   0  0  0  0  0  0
    4.4601   -0.8758    3.8563 O   0  0  0  0  0  0
    3.1875    1.8406    0.6813 C   0  0  0  0  0  0
    2.4657    5.1450    8.8261 C   0  0  0  0  0  0
    2.7968    3.9024    9.3527 C   0  0  0  0  0  0
    2.4927    2.7477    8.6376 C   0  0  0  0  0  0
   -0.8191    3.2284    0.3369 N   0  0  0  0  0  0
    1.5871    1.5286    6.6134 C   0  0  0  0  0  0
    0.4962    1.6849    5.5421 C   0  0  0  0  0  0
    4.5645   -0.7602    5.2698 C   0  0  0  0  0  0
   -0.0855   -2.4665   -1.8014 C   0  0  0  0  0  0
   -0.1500    2.9696    3.4771 C   0  0  0  0  0  0
    5.4611   -1.8604    5.8049 C   0  0  0  0  0  0
    0.1411    4.1369    2.5084 C   0  0  0  0  0  0
    4.6562    2.3175    0.5846 C   0  0  0  0  0  0
   -0.8784    4.2761    1.3564 C   0  0  0  0  0  0
    1.2597   -2.6872   -2.1690 C   0  0  0  0  0  0
   -0.7885   -3.4910   -1.1327 C   0  0  0  0  0  0
    6.8438   -1.6684    5.8538 C   0  0  0  0  0  0
    4.9002   -3.0603    6.2485 C   0  0  0  0  0  0
    4.7410    3.8560    0.6880 C   0  0  0  0  0  0
    5.3719    1.7733   -0.6703 C   0  0  0  0  0  0
    7.6663   -2.6778    6.3478 C   0  0  0  0  0  0
    1.8514   -3.9210   -1.9336 C   0  0  0  0  0  0
   -0.1787   -4.7181   -0.9063 C   0  0  0  0  0  0
    5.7234   -4.0690    6.7424 C   0  0  0  0  0  0
    7.1023   -3.8729    6.7903 C   0  0  0  0  0  0
    1.1330   -4.9337   -1.3105 C   0  0  0  0  0  0
   -1.0562   -0.6965    0.1352 H   0  0  0  0  0  0
    1.3863    0.3710   -1.2303 H   0  0  0  0  0  0
    3.3793   -0.1231   -0.1744 H   0  0  0  0  0  0
    4.1542   -1.2784    1.5796 H   0  0  0  0  0  0
   -0.3125    4.4184    5.7181 H   0  0  0  0  0  0
    1.1764    5.0108    4.9327 H   0  0  0  0  0  0
   -1.7614   -1.2206   -2.2012 H   0  0  0  0  0  0
   -0.2487   -0.6109   -2.8207 H   0  0  0  0  0  0
    1.5591    6.1952    7.2041 H   0  0  0  0  0  0
    2.6516    2.2428   -0.1805 H   0  0  0  0  0  0
    2.7189    2.3117    1.5455 H   0  0  0  0  0  0
    2.7005    6.0459    9.3740 H   0  0  0  0  0  0
    3.2928    3.8336   10.3098 H   0  0  0  0  0  0
    2.7685    1.7886    9.0519 H   0  0  0  0  0  0
   -0.3124    3.4552   -0.5068 H   0  0  0  0  0  0
    2.5178    1.2215    6.1390 H   0  0  0  0  0  0
    1.3190    0.7181    7.2926 H   0  0  0  0  0  0
    0.4635    0.8181    4.8793 H   0  0  0  0  0  0
   -0.4944    1.8365    5.9753 H   0  0  0  0  0  0
    4.9735    0.2127    5.5488 H   0  0  0  0  0  0
    3.5794   -0.8369    5.7331 H   0  0  0  0  0  0
   -0.0103    2.0106    2.9775 H   0  0  0  0  0  0
   -1.1567    3.0201    3.8959 H   0  0  0  0  0  0
    0.1180    5.0802    3.0510 H   0  0  0  0  0  0
    1.1502    4.0474    2.1053 H   0  0  0  0  0  0
    5.1898    1.9287    1.4524 H   0  0  0  0  0  0
   -1.8889    4.3076    1.7704 H   0  0  0  0  0  0
   -0.7382    5.2384    0.8627 H   0  0  0  0  0  0
    1.8328   -1.8987   -2.6347 H   0  0  0  0  0  0
   -1.8014   -3.3248   -0.7960 H   0  0  0  0  0  0
    7.2803   -0.7418    5.5098 H   0  0  0  0  0  0
    3.8311   -3.2126    6.2104 H   0  0  0  0  0  0
    5.1156    4.3209   -0.2237 H   0  0  0  0  0  0
    5.4061    4.1524    1.4993 H   0  0  0  0  0  0
    3.7693    4.3075    0.8914 H   0  0  0  0  0  0
    4.6675    1.3966   -1.4121 H   0  0  0  0  0  0
    6.0369    0.9508   -0.4050 H   0  0  0  0  0  0
    5.9841    2.5263   -1.1667 H   0  0  0  0  0  0
    8.7362   -2.5352    6.3878 H   0  0  0  0  0  0
    2.8765   -4.0909   -2.2283 H   0  0  0  0  0  0
   -0.7237   -5.5050   -0.4059 H   0  0  0  0  0  0
    5.2949   -4.9987    7.0870 H   0  0  0  0  0  0
    7.7404   -4.6554    7.1738 H   0  0  0  0  0  0
    1.6007   -5.8900   -1.1277 H   0  0  0  0  0  0
    1.7664    2.8163    4.3412 H   0  0  0  0  0  0
  1  2  1  0  0  0
  1  5  1  0  0  0
  1 12  2  0  0  0
  2  4  1  0  0  0
  2 13  1  0  0  0
  2 46  1  0  0  0
  3  4  1  0  0  0
  3  7  1  0  0  0
  3 15  2  0  0  0
  4 47  1  0  0  0
  5 17  2  0  0  0
  5 24  1  0  0  0
  6  8  1  0  0  0
  6 16  2  0  0  0
  6 19  1  0  0  0
  7  8  1  0  0  0
  7 20  1  0  0  0
  7 48  1  0  0  0
  8 49  1  0  0  0
  9 29  1  0  0  0
  9 11  1  0  0  0
  9 26  1  0  0  0
  9 90  1  0  0  0
 10 11  1  0  0  0
 10 18  2  0  0  0
 10 14  1  0  0  0
 11 50  1  0  0  0
 11 51  1  0  0  0
 13 28  1  0  0  0
 13 52  1  0  0  0
 13 53  1  0  0  0
 14 25  1  0  0  0
 14 23  2  0  0  0
 18 21  1  0  0  0
 18 54  1  0  0  0
 19 27  1  0  0  0
 20 32  1  0  0  0
 20 55  1  0  0  0
 20 56  1  0  0  0
 21 22  2  0  0  0
 21 57  1  0  0  0
 22 23  1  0  0  0
 22 58  1  0  0  0
 23 59  1  0  0  0
 24 33  1  0  0  0
 24 60  1  0  0  0
 25 26  1  0  0  0
 25 61  1  0  0  0
 25 62  1  0  0  0
 26 63  1  0  0  0
 26 64  1  0  0  0
 27 30  1  0  0  0
 27 65  1  0  0  0
 27 66  1  0  0  0
 28 34  2  0  0  0
 28 35  1  0  0  0
 29 31  1  0  0  0
 29 67  1  0  0  0
 29 68  1  0  0  0
 30 36  2  0  0  0
 30 37  1  0  0  0
 31 33  1  0  0  0
 31 69  1  0  0  0
 31 70  1  0  0  0
 32 38  1  0  0  0
 32 39  1  0  0  0
 32 71  1  0  0  0
 33 72  1  0  0  0
 33 73  1  0  0  0
 34 41  1  0  0  0
 34 74  1  0  0  0
 35 42  2  0  0  0
 35 75  1  0  0  0
 36 40  1  0  0  0
 36 76  1  0  0  0
 37 43  2  0  0  0
 37 77  1  0  0  0
 38 78  1  0  0  0
 38 79  1  0  0  0
 38 80  1  0  0  0
 39 81  1  0  0  0
 39 82  1  0  0  0
 39 83  1  0  0  0
 40 44  2  0  0  0
 40 84  1  0  0  0
 41 45  2  0  0  0
 41 85  1  0  0  0
 42 45  1  0  0  0
 42 86  1  0  0  0
 43 44  1  0  0  0
 43 87  1  0  0  0
 44 88  1  0  0  0
 45 89  1  0  0  0
M  CHG  1   9   1
M  END
> <chembl_id>
CHEMBL3706737

> <chembl_pref_name>
None

> <s_m_source_file>
sdf/inactives_sanitized.sdf

> <i_m_source_file_index>
3

> <i_lp_mmshare_version>
49012

> <i_m_ct_stereo_status>
1

> <i_f3d_flags>
0

> <s_epik_input>
W2NIXTFbY0hdW2NIXVtjSF1jKGMxMilbQ0gyXVtDSDJdTihbQ0gyXTIpW0NIMl1bQ0gyXVtDSDJdW05IXUMoPU8pQyg9TylbQ0BASF0oW0NIMl1jM1tjSF1bY0hdW2NIXVtjSF1bY0hdMylbTkhdQyg9TylbQ0BASF0oW0NIMl1bQ0hdKFtDSDNdKVtDSDNdKVtOSF1DKD1PKU9bQ0gyXWM0W2NIXVtjSF1bY0hdW2NIXVtjSF00

> <s_epik_cmdline>
J2VwaWtfcHl0aG9uJywgJy1waHQnLCAnMC41JywgJy1waCcsICc3LjUnLCAnLW50JywgJy1tYScsICcyMDAnLCAnLWltYWUnLCAnPGluZmlsZS5tYWU+JywgJy1vbWFlJywgJzxvdXRmaWxlLm1hZT4n

> <r_lp_tautomer_probability>
0.99990000499975

> <r_epik_Ionization_Penalty>
  0.0556

> <r_epik_Ionization_Penalty_Charging>
  0.0556

> <r_epik_Ionization_Penalty_Neutral>
  0.0000

> <r_epik_State_Penalty>
  0.0479

> <r_epik_Charging_Adjusted_Penalty>
0.103525979085429

> <i_epik_Tot_Q>
1

> <i_epik_Tot_abs_Q>
1

> <s_epik_Chemistry_Notes>
This compound has an ester and may undergo hydrolysis at high or low pH.

> <s_lp_Force_Field>
OPLS3e

> <r_lp_Energy>
56.898865

> <b_lp_Chiralities_Consistent>
1

> <s_lp_Variant>
sdf/inactives_sanitized.sdf:3-1

$$$$
sdf/inactives_sanitized.sdf:4
                    3D
 Schrodinger Suite 2020-1.
 38 41  0  0  1  0            999 V2000
   -0.0708    2.6628   -0.1220 C   0  0  0  0  0  0
   -2.9166    2.5211   -0.1355 C   0  0  0  0  0  0
   -2.1514    1.3254   -0.0190 C   0  0  0  0  0  0
   -0.7119    1.3874   -0.0229 C   0  0  0  0  0  0
   -0.0102    0.1455    0.0851 C   0  0  0  0  0  0
   -0.6370   -1.0508    0.2138 N   0  0  0  0  0  0
   -1.9937   -1.0792    0.2332 C   0  0  0  0  0  0
   -2.7812    0.0624    0.1041 C   0  0  0  0  0  0
   -0.8714    3.7912   -0.2212 C   0  0  0  0  0  0
   -2.2322    3.7235   -0.2300 C   0  0  0  0  0  0
   -2.7439    4.9746   -0.3700 O   0  0  0  0  0  0
   -1.6558    5.8472   -0.2307 C   0  0  0  0  0  0
   -0.4848    5.0870   -0.3546 O   0  0  0  0  0  0
    1.4761    0.0383    0.0585 C   0  0  0  0  0  0
    2.2064    0.5420   -1.0245 C   0  0  0  0  0  0
    3.5951    0.4447   -1.0496 C   0  0  0  0  0  0
    4.2643   -0.1643    0.0103 C   0  0  0  0  0  0
    3.5507   -0.6767    1.0921 C   0  0  0  0  0  0
    2.1622   -0.5757    1.1138 C   0  0  0  0  0  0
    5.6548   -0.2619   -0.0117 N   0  0  0  0  0  0
   -2.5907   -2.3166    0.3433 O   0  0  0  0  0  0
   -2.5138   -3.0134    1.5114 C   0  0  0  0  0  0
   -3.1922   -4.3736    1.4100 C   0  0  0  0  0  0
   -1.9835   -2.6429    2.5612 O   0  0  0  0  0  0
    1.0053    2.7436   -0.1142 H   0  0  0  0  0  0
   -3.9961    2.4763   -0.1442 H   0  0  0  0  0  0
   -3.8597   -0.0060    0.1085 H   0  0  0  0  0  0
   -1.6893    6.6264   -0.9930 H   0  0  0  0  0  0
   -1.6849    6.3021    0.7613 H   0  0  0  0  0  0
    1.6961    1.0106   -1.8535 H   0  0  0  0  0  0
    4.1427    0.8416   -1.8924 H   0  0  0  0  0  0
    4.0638   -1.1514    1.9162 H   0  0  0  0  0  0
    1.6170   -0.9736    1.9578 H   0  0  0  0  0  0
    6.1322   -0.7199    0.7510 H   0  0  0  0  0  0
    6.1659    0.0996   -0.8040 H   0  0  0  0  0  0
   -2.6982   -4.9863    0.6558 H   0  0  0  0  0  0
   -4.2392   -4.2552    1.1311 H   0  0  0  0  0  0
   -3.1467   -4.8995    2.3640 H   0  0  0  0  0  0
  1  9  2  0  0  0
  1  4  1  0  0  0
  1 25  1  0  0  0
  2  3  1  0  0  0
  2 10  2  0  0  0
  2 26  1  0  0  0
  3  8  1  0  0  0
  3  4  2  0  0  0
  4  5  1  0  0  0
  5  6  2  0  0  0
  5 14  1  0  0  0
  6  7  1  0  0  0
  7  8  2  0  0  0
  7 21  1  0  0  0
  8 27  1  0  0  0
  9 13  1  0  0  0
  9 10  1  0  0  0
 10 11  1  0  0  0
 11 12  1  0  0  0
 12 13  1  0  0  0
 12 28  1  0  0  0
 12 29  1  0  0  0
 14 15  2  0  0  0
 14 19  1  0  0  0
 15 16  1  0  0  0
 15 30  1  0  0  0
 16 17  2  0  0  0
 16 31  1  0  0  0
 17 18  1  0  0  0
 17 20  1  0  0  0
 18 19  2  0  0  0
 18 32  1  0  0  0
 19 33  1  0  0  0
 20 34  1  0  0  0
 20 35  1  0  0  0
 21 22  1  0  0  0
 22 23  1  0  0  0
 22 24  2  0  0  0
 23 36  1  0  0  0
 23 37  1  0  0  0
 23 38  1  0  0  0
M  END
> <chembl_id>
CHEMBL594178

> <chembl_pref_name>
None

> <s_m_source_file>
sdf/inactives_sanitized.sdf

> <i_m_source_file_index>
4

> <i_lp_mmshare_version>
49012

> <i_m_ct_stereo_status>
1

> <i_f3d_flags>
0

> <s_epik_input>
TzFbQ0gyXU9jKFtjSF0yKWMxW2NIXWMoYzIzKWMobmMoW2NIXTMpT0MoPU8pW0NIM10pLWM0W2NIXVtjSF1jKFtOSDJdKVtjSF1bY0hdNA==

> <s_epik_cmdline>
J2VwaWtfcHl0aG9uJywgJy1waHQnLCAnMC41JywgJy1waCcsICc3LjUnLCAnLW50JywgJy1tYScsICcyMDAnLCAnLWltYWUnLCAnPGluZmlsZS5tYWU+JywgJy1vbWFlJywgJzxvdXRmaWxlLm1hZT4n

> <r_epik_Ionization_Penalty>
  0.3664

> <r_epik_Ionization_Penalty_Charging>
  0.0000

> <r_epik_Ionization_Penalty_Neutral>
  0.3664

> <r_epik_State_Penalty>
  0.3629

> <r_epik_Charging_Adjusted_Penalty>
0.362949529821228

> <i_epik_Tot_Q>
0

> <i_epik_Tot_abs_Q>
0

> <s_epik_Chemistry_Notes>
This compound contains an acetal/aminal-like group ( X-CH(R)-Y where X, Y are N, S, or O) that may be acid/base labile, releasing an aldehyde.

> <s_lp_Force_Field>
OPLS3e

> <r_lp_Energy>
42.57728

> <b_lp_Chiralities_Consistent>
1

> <s_lp_Variant>
sdf/inactives_sanitized.sdf:4-1

$$$$
sdf/inactives_sanitized.sdf:4
                    3D
 Schrodinger Suite 2020-1.
 39 42  0  0  1  0            999 V2000
   -0.1480    2.5539    0.1413 C   0  0  0  0  0  0
   -2.9686    2.1612    0.0727 C   0  0  0  0  0  0
   -2.0971    1.0421   -0.0549 C   0  0  0  0  0  0
   -0.6670    1.2289   -0.0061 C   0  0  0  0  0  0
    0.1629    0.0671   -0.1218 C   0  0  0  0  0  0
   -0.4137   -1.1370   -0.3087 N   0  3  0  0  0  0
   -1.7373   -1.3484   -0.3848 C   0  0  0  0  0  0
   -2.6126   -0.2671   -0.2333 C   0  0  0  0  0  0
   -1.0481    3.6040    0.2465 C   0  0  0  0  0  0
   -2.3969    3.4161    0.2172 C   0  0  0  0  0  0
   -3.0215    4.6126    0.3740 O   0  0  0  0  0  0
   -2.0126    5.5817    0.2829 C   0  0  0  0  0  0
   -0.7817    4.9251    0.4207 O   0  0  0  0  0  0
    1.6530    0.0529   -0.0620 C   0  0  0  0  0  0
    2.4008   -0.5812   -1.0632 C   0  0  0  0  0  0
    3.7921   -0.5917   -1.0106 C   0  0  0  0  0  0
    4.4488    0.0294    0.0501 C   0  0  0  0  0  0
    3.7192    0.6557    1.0586 C   0  0  0  0  0  0
    2.3282    0.6642    1.0016 C   0  0  0  0  0  0
    5.8418    0.0234    0.1029 N   0  0  0  0  0  0
   -2.1150   -2.6672   -0.5351 O   0  0  0  0  0  0
   -3.0679   -3.0321   -1.4372 C   0  0  0  0  0  0
   -3.3767   -4.5223   -1.3686 C   0  0  0  0  0  0
   -3.6380   -2.3022   -2.2505 O   0  0  0  0  0  0
    0.9159    2.7333    0.1627 H   0  0  0  0  0  0
   -4.0398    2.0222    0.0486 H   0  0  0  0  0  0
   -3.6827   -0.4167   -0.2596 H   0  0  0  0  0  0
   -2.0586    6.0561   -0.6995 H   0  0  0  0  0  0
   -2.1340    6.3367    1.0606 H   0  0  0  0  0  0
    1.9045   -1.0610   -1.8947 H   0  0  0  0  0  0
    4.3521   -1.0799   -1.7954 H   0  0  0  0  0  0
    4.2222    1.1348    1.8865 H   0  0  0  0  0  0
    1.7748    1.1465    1.7947 H   0  0  0  0  0  0
    6.3132    0.4961    0.8610 H   0  0  0  0  0  0
    6.3657   -0.4131   -0.6420 H   0  0  0  0  0  0
   -3.7393   -4.7894   -0.3759 H   0  0  0  0  0  0
   -2.4811   -5.1061   -1.5809 H   0  0  0  0  0  0
   -4.1420   -4.7914   -2.0970 H   0  0  0  0  0  0
    0.1935   -1.9399   -0.3899 H   0  0  0  0  0  0
  1  9  2  0  0  0
  1  4  1  0  0  0
  1 25  1  0  0  0
  2  3  1  0  0  0
  2 10  2  0  0  0
  2 26  1  0  0  0
  3  8  1  0  0  0
  3  4  2  0  0  0
  4  5  1  0  0  0
  5  6  2  0  0  0
  5 14  1  0  0  0
  6  7  1  0  0  0
  6 39  1  0  0  0
  7  8  2  0  0  0
  7 21  1  0  0  0
  8 27  1  0  0  0
  9 13  1  0  0  0
  9 10  1  0  0  0
 10 11  1  0  0  0
 11 12  1  0  0  0
 12 13  1  0  0  0
 12 28  1  0  0  0
 12 29  1  0  0  0
 14 15  2  0  0  0
 14 19  1  0  0  0
 15 16  1  0  0  0
 15 30  1  0  0  0
 16 17  2  0  0  0
 16 31  1  0  0  0
 17 18  1  0  0  0
 17 20  1  0  0  0
 18 19  2  0  0  0
 18 32  1  0  0  0
 19 33  1  0  0  0
 20 34  1  0  0  0
 20 35  1  0  0  0
 21 22  1  0  0  0
 22 23  1  0  0  0
 22 24  2  0  0  0
 23 36  1  0  0  0
 23 37  1  0  0  0
 23 38  1  0  0  0
M  CHG  1   6   1
M  END
> <chembl_id>
CHEMBL594178

> <chembl_pref_name>
None

> <s_m_source_file>
sdf/inactives_sanitized.sdf

> <i_m_source_file_index>
4

> <i_lp_mmshare_version>
49012

> <i_m_ct_stereo_status>
1

> <i_f3d_flags>
0

> <s_epik_input>
TzFbQ0gyXU9jKFtjSF0yKWMxW2NIXWMoYzIzKWMobmMoW2NIXTMpT0MoPU8pW0NIM10pLWM0W2NIXVtjSF1jKFtOSDJdKVtjSF1bY0hdNA==

> <s_epik_cmdline>
J2VwaWtfcHl0aG9uJywgJy1waHQnLCAnMC41JywgJy1waCcsICc3LjUnLCAnLW50JywgJy1tYScsICcyMDAnLCAnLWltYWUnLCAnPGluZmlsZS5tYWU+JywgJy1vbWFlJywgJzxvdXRmaWxlLm1hZT4n

> <r_epik_Ionization_Penalty>
  0.4594

> <r_epik_Ionization_Penalty_Charging>
  0.4592

> <r_epik_Ionization_Penalty_Neutral>
  0.0002

> <r_epik_State_Penalty>
  0.4626

> <r_epik_Charging_Adjusted_Penalty>
0.921803147687965

> <i_epik_Tot_Q>
1

> <i_epik_Tot_abs_Q>
1

> <s_epik_Chemistry_Notes>
This compound contains an acetal/aminal-like group ( X-CH(R)-Y where X, Y are N, S, or O) that may be acid/base labile, releasing an aldehyde.

> <s_lp_Force_Field>
OPLS3e

> <r_lp_Energy>
46.398395

> <b_lp_Chiralities_Consistent>
1

> <s_lp_Variant>
sdf/inactives_sanitized.sdf:4-2

$$$$
sdf/inactives_sanitized.sdf:5
                    3D
 Schrodinger Suite 2020-1.
 52 55  0  0  1  0            999 V2000
   -0.2505   -2.3699   -0.1502 C   0  0  0  0  0  0
   -3.0788   -2.5784    0.2339 C   0  0  0  0  0  0
   -2.4888   -1.2408    0.1283 C   0  0  0  0  0  0
   -1.0270   -1.1216   -0.0516 C   0  0  0  0  0  0
   -0.5078    0.1377   -0.1168 C   0  0  0  0  0  0
   -1.3103    1.2837   -0.0238 N   0  0  0  0  0  0
   -2.6862    1.2273    0.0551 C   0  0  0  0  0  0
   -3.2323   -0.1145    0.1995 C   0  0  0  0  0  0
   -3.4345    2.2041   -0.0262 O   0  0  0  0  0  0
   -0.7326    2.4337    0.5439 N   0  0  0  0  0  0
    0.9573    0.3559   -0.2901 C   0  0  0  0  0  0
    1.8522   -0.0092    0.7197 C   0  0  0  0  0  0
    3.2140    0.2382    0.5735 C   0  0  0  0  0  0
    3.7035    0.8554   -0.5778 C   0  0  0  0  0  0
    2.8067    1.2128   -1.5963 C   0  0  0  0  0  0
    1.4453    0.9637   -1.4505 C   0  0  0  0  0  0
    5.0664    1.0764   -0.6270 O   0  0  0  0  0  0
    5.6216    1.7382   -1.7584 C   0  0  0  0  0  0
   -0.8798   -3.5616   -0.0717 C   0  0  0  0  0  0
   -2.2870   -3.6656    0.1241 C   0  0  0  0  0  0
   -2.6203   -4.9536    0.2262 O   0  0  0  0  0  0
   -1.3855   -5.6186    0.3768 C   0  0  0  0  0  0
   -0.3504   -4.7861   -0.0970 O   0  0  0  0  0  0
   -0.3969    3.5123   -0.2680 C   0  0  0  0  0  0
    0.6189    4.1963    0.3234 O   0  0  0  0  0  0
   -0.9044    3.7892   -1.3567 O   0  0  0  0  0  0
    1.3027    5.3297   -0.2428 C   0  0  0  0  0  0
    0.3398    6.5251   -0.4488 C   0  0  0  0  0  0
    2.0174    4.9577   -1.5660 C   0  0  0  0  0  0
    2.3617    5.7019    0.8149 C   0  0  0  0  0  0
    0.8208   -2.3453   -0.2823 H   0  0  0  0  0  0
   -4.1394   -2.6919    0.4056 H   0  0  0  0  0  0
   -4.3011   -0.1963    0.3387 H   0  0  0  0  0  0
   -0.1120    2.1916    1.3023 H   0  0  0  0  0  0
    1.4912   -0.4752    1.6252 H   0  0  0  0  0  0
    3.8936   -0.0429    1.3648 H   0  0  0  0  0  0
    3.1449    1.6924   -2.5021 H   0  0  0  0  0  0
    0.7655    1.2570   -2.2378 H   0  0  0  0  0  0
    6.6987    1.8370   -1.6246 H   0  0  0  0  0  0
    5.2102    2.7419   -1.8755 H   0  0  0  0  0  0
    5.4535    1.1728   -2.6762 H   0  0  0  0  0  0
   -1.2164   -5.9038    1.4171 H   0  0  0  0  0  0
   -1.4034   -6.5288   -0.2239 H   0  0  0  0  0  0
    0.8813    7.4262   -0.7388 H   0  0  0  0  0  0
   -0.2080    6.7527    0.4665 H   0  0  0  0  0  0
   -0.3991    6.3312   -1.2262 H   0  0  0  0  0  0
    1.3151    4.6924   -2.3559 H   0  0  0  0  0  0
    2.6844    4.1062   -1.4286 H   0  0  0  0  0  0
    2.6203    5.7869   -1.9381 H   0  0  0  0  0  0
    2.9567    6.5615    0.5033 H   0  0  0  0  0  0
    3.0510    4.8757    0.9982 H   0  0  0  0  0  0
    1.9009    5.9514    1.7719 H   0  0  0  0  0  0
  1 19  2  0  0  0
  1  4  1  0  0  0
  1 31  1  0  0  0
  2  3  1  0  0  0
  2 20  2  0  0  0
  2 32  1  0  0  0
  3  8  2  0  0  0
  3  4  1  0  0  0
  4  5  2  0  0  0
  5 11  1  0  0  0
  5  6  1  0  0  0
  6  7  1  0  0  0
  6 10  1  0  0  0
  7  8  1  0  0  0
  7  9  2  0  0  0
  8 33  1  0  0  0
 10 24  1  0  0  0
 10 34  1  0  0  0
 11 16  1  0  0  0
 11 12  2  0  0  0
 12 13  1  0  0  0
 12 35  1  0  0  0
 13 14  2  0  0  0
 13 36  1  0  0  0
 14 15  1  0  0  0
 14 17  1  0  0  0
 15 16  2  0  0  0
 15 37  1  0  0  0
 16 38  1  0  0  0
 17 18  1  0  0  0
 18 39  1  0  0  0
 18 40  1  0  0  0
 18 41  1  0  0  0
 19 20  1  0  0  0
 19 23  1  0  0  0
 20 21  1  0  0  0
 21 22  1  0  0  0
 22 23  1  0  0  0
 22 42  1  0  0  0
 22 43  1  0  0  0
 24 25  1  0  0  0
 24 26  2  0  0  0
 25 27  1  0  0  0
 27 28  1  0  0  0
 27 29  1  0  0  0
 27 30  1  0  0  0
 28 44  1  0  0  0
 28 45  1  0  0  0
 28 46  1  0  0  0
 29 47  1  0  0  0
 29 48  1  0  0  0
 29 49  1  0  0  0
 30 50  1  0  0  0
 30 51  1  0  0  0
 30 52  1  0  0  0
M  END
> <chembl_id>
CHEMBL594179

> <chembl_pref_name>
None

> <s_m_source_file>
sdf/inactives_sanitized.sdf

> <i_m_source_file_index>
5

> <i_lp_mmshare_version>
49012

> <i_m_ct_stereo_status>
1

> <i_f3d_flags>
0

> <s_epik_input>
TzFbQ0gyXU9jKFtjSF0yKWMxW2NIXWMoYzIzKWMobihjKD1PKVtjSF0zKVtOSF1DKD1PKU9DKFtDSDNdKShbQ0gzXSlbQ0gzXSktYzRbY0hdW2NIXWMoW2NIXVtjSF00KU9bQ0gzXQ==

> <s_epik_cmdline>
J2VwaWtfcHl0aG9uJywgJy1waHQnLCAnMC41JywgJy1waCcsICc3LjUnLCAnLW50JywgJy1tYScsICcyMDAnLCAnLWltYWUnLCAnPGluZmlsZS5tYWU+JywgJy1vbWFlJywgJzxvdXRmaWxlLm1hZT4n

> <r_lp_tautomer_probability>
1

> <r_epik_Ionization_Penalty>
  0.0000

> <r_epik_Ionization_Penalty_Charging>
  0.0000

> <r_epik_Ionization_Penalty_Neutral>
  0.0000

> <r_epik_State_Penalty>
 -0.0000

> <r_epik_Charging_Adjusted_Penalty>
8.265089755582e-08

> <i_epik_Tot_Q>
0

> <i_epik_Tot_abs_Q>
0

> <s_epik_Chemistry_Notes>
This compound has an ester and may undergo hydrolysis at high or low pH. This compound contains an acetal/aminal-like group ( X-CH(R)-Y where X, Y are N, S, or O) that may be acid/base labile, releasing an aldehyde.

> <s_lp_Force_Field>
OPLS3e

> <r_lp_Energy>
64.253854

> <b_lp_Chiralities_Consistent>
1

> <s_lp_Variant>
sdf/inactives_sanitized.sdf:5-1

$$$$
sdf/inactives_sanitized.sdf:6
                    3D
 Schrodinger Suite 2020-1.
 37 40  0  0  1  0            999 V2000
   -0.1803   -2.3853    0.2169 C   0  0  0  0  0  0
   -3.0288   -2.1672    0.0680 C   0  0  0  0  0  0
   -2.2319   -0.9420   -0.0428 C   0  0  0  0  0  0
   -0.7582   -1.0402    0.0410 C   0  0  0  0  0  0
   -0.0431    0.1163   -0.0825 C   0  0  0  0  0  0
   -0.6845    1.3520   -0.2686 N   0  0  0  0  0  0
   -2.0478    1.5125   -0.3343 C   0  0  0  0  0  0
   -2.7985    0.2695   -0.2394 C   0  0  0  0  0  0
   -2.6304    2.5968   -0.4109 O   0  0  0  0  0  0
    0.1091    2.4970   -0.0461 N   0  0  0  0  0  0
    1.4511    0.0881   -0.0297 C   0  0  0  0  0  0
    2.2027    0.4388   -1.1552 C   0  0  0  0  0  0
    3.5935    0.4212   -1.1046 C   0  0  0  0  0  0
    4.2565    0.0568    0.0674 C   0  0  0  0  0  0
    3.5032   -0.2924    1.1990 C   0  0  0  0  0  0
    2.1121   -0.2742    1.1480 C   0  0  0  0  0  0
    5.6375    0.0690    0.0238 O   0  0  0  0  0  0
    6.3725   -0.2921    1.1884 C   0  0  0  0  0  0
   -0.9906   -3.4588    0.3297 C   0  0  0  0  0  0
   -2.4089   -3.3502    0.2580 C   0  0  0  0  0  0
   -2.9452   -4.5693    0.3381 O   0  0  0  0  0  0
   -1.8497   -5.4387    0.1557 C   0  0  0  0  0  0
   -0.6569   -4.7454    0.4492 O   0  0  0  0  0  0
    0.8894   -2.5296    0.2399 H   0  0  0  0  0  0
   -4.1054   -2.1233   -0.0112 H   0  0  0  0  0  0
   -3.8746    0.3418   -0.3125 H   0  0  0  0  0  0
    0.8108    2.2392    0.6329 H   0  0  0  0  0  0
    0.5994    2.6868   -0.9082 H   0  0  0  0  0  0
    1.7084    0.7232   -2.0729 H   0  0  0  0  0  0
    4.1613    0.6926   -1.9827 H   0  0  0  0  0  0
    3.9782   -0.5788    2.1248 H   0  0  0  0  0  0
    1.5459   -0.5425    2.0286 H   0  0  0  0  0  0
    7.4393   -0.2236    0.9762 H   0  0  0  0  0  0
    6.1621   -1.3188    1.4921 H   0  0  0  0  0  0
    6.1584    0.3795    2.0212 H   0  0  0  0  0  0
   -1.9479   -6.2743    0.8496 H   0  0  0  0  0  0
   -1.8316   -5.8421   -0.8590 H   0  0  0  0  0  0
  1 19  2  0  0  0
  1  4  1  0  0  0
  1 24  1  0  0  0
  2  3  1  0  0  0
  2 20  2  0  0  0
  2 25  1  0  0  0
  3  4  1  0  0  0
  3  8  2  0  0  0
  4  5  2  0  0  0
  5 11  1  0  0  0
  5  6  1  0  0  0
  6  7  1  0  0  0
  6 10  1  0  0  0
  7  8  1  0  0  0
  7  9  2  0  0  0
  8 26  1  0  0  0
 10 27  1  0  0  0
 10 28  1  0  0  0
 11 12  2  0  0  0
 11 16  1  0  0  0
 12 13  1  0  0  0
 12 29  1  0  0  0
 13 14  2  0  0  0
 13 30  1  0  0  0
 14 15  1  0  0  0
 14 17  1  0  0  0
 15 16  2  0  0  0
 15 31  1  0  0  0
 16 32  1  0  0  0
 17 18  1  0  0  0
 18 33  1  0  0  0
 18 34  1  0  0  0
 18 35  1  0  0  0
 19 20  1  0  0  0
 19 23  1  0  0  0
 20 21  1  0  0  0
 21 22  1  0  0  0
 22 23  1  0  0  0
 22 36  1  0  0  0
 22 37  1  0  0  0
M  END
> <chembl_id>
CHEMBL596442

> <chembl_pref_name>
None

> <s_m_source_file>
sdf/inactives_sanitized.sdf

> <i_m_source_file_index>
6

> <i_lp_mmshare_version>
49012

> <i_m_ct_stereo_status>
1

> <i_f3d_flags>
0

> <s_epik_input>
TzFbQ0gyXU9jKFtjSF0yKWMxW2NIXWMoYzIzKWMobihbTkgyXSljKD1PKVtjSF0zKS1jNFtjSF1bY0hdYyhbY0hdW2NIXTQpT1tDSDNd

> <s_epik_cmdline>
J2VwaWtfcHl0aG9uJywgJy1waHQnLCAnMC41JywgJy1waCcsICc3LjUnLCAnLW50JywgJy1tYScsICcyMDAnLCAnLWltYWUnLCAnPGluZmlsZS5tYWU+JywgJy1vbWFlJywgJzxvdXRmaWxlLm1hZT4n

> <r_lp_tautomer_probability>
1

> <r_epik_Ionization_Penalty>
  0.0011

> <r_epik_Ionization_Penalty_Charging>
  0.0000

> <r_epik_Ionization_Penalty_Neutral>
  0.0011

> <r_epik_State_Penalty>
 -0.0000

> <r_epik_Charging_Adjusted_Penalty>
8.01347812979974e-08

> <i_epik_Tot_Q>
0

> <i_epik_Tot_abs_Q>
0

> <s_epik_Chemistry_Notes>
This compound contains an acetal/aminal-like group ( X-CH(R)-Y where X, Y are N, S, or O) that may be acid/base labile, releasing an aldehyde.

> <s_lp_Force_Field>
OPLS3e

> <r_lp_Energy>
67.139619

> <b_lp_Chiralities_Consistent>
1

> <s_lp_Variant>
sdf/inactives_sanitized.sdf:6-1

$$$$
sdf/inactives_sanitized.sdf:7
                    3D
 Schrodinger Suite 2020-1.
 68 68  0  0  1  0            999 V2000
    1.8096   -1.0948   -1.2324 C   0  0  0  0  0  0
   -0.9266    1.2720   -1.1362 C   0  0  0  0  0  0
   -0.1031    0.2516   -0.8368 N   0  0  0  0  0  0
    1.5718   -1.5283   -2.7440 C   0  0  0  0  0  0
   -3.5604    3.2106   -1.3540 C   0  0  0  0  0  0
   -2.4418    0.9640   -1.0290 C   0  0  2  0  0  0
    1.3624    0.3195   -0.8660 C   0  0  1  0  0  0
   -3.3169    1.9023   -1.7676 N   0  0  0  0  0  0
    2.3746   -1.8595   -0.4441 O   0  0  0  0  0  0
   -0.5288    2.3888   -1.4717 O   0  0  0  0  0  0
   -3.1441    3.7516   -0.3267 O   0  0  0  0  0  0
    0.9117   -0.8352   -3.5201 O   0  0  0  0  0  0
   -4.3315    3.8148   -2.2781 O   0  0  0  0  0  0
   -2.8944    0.7324    0.4480 C   0  0  0  0  0  0
    2.1710   -2.6954   -3.0455 N   0  0  0  0  0  0
   -4.7091    5.1782   -2.1325 C   0  0  0  0  0  0
   -5.6518    5.5668   -3.2563 C   0  0  0  0  0  0
    7.2055   -3.0944   -5.3078 O   0  0  0  0  0  0
    1.9474    0.8351    0.4775 C   0  0  0  0  0  0
    4.3588   -2.5371   -4.9853 O   0  0  0  0  0  0
   -4.3692    0.3004    0.6382 C   0  0  0  0  0  0
    2.1550   -3.3273   -4.3648 C   0  0  0  0  0  0
    6.6401   -1.7998   -5.3038 C   0  0  0  0  0  0
    3.0065   -2.5970   -5.4208 C   0  0  0  0  0  0
    5.2146   -1.8301   -5.8742 C   0  0  0  0  0  0
   -5.1448    5.8170   -4.5339 C   0  0  0  0  0  0
   -7.0225    5.6740   -3.0093 C   0  0  0  0  0  0
   -4.7450    0.2596    2.1352 C   0  0  0  0  0  0
   -4.6947   -1.0252   -0.0827 C   0  0  0  0  0  0
    3.4655    1.0893    0.4620 C   0  0  0  0  0  0
   -6.0099    6.1738   -5.5652 C   0  0  0  0  0  0
   -7.8868    6.0310   -4.0412 C   0  0  0  0  0  0
   -7.3767    6.2791   -5.3141 C   0  0  0  0  0  0
   -0.4975   -0.6349   -0.5576 H   0  0  0  0  0  0
   -2.5829    0.0194   -1.5558 H   0  0  0  0  0  0
    1.6921    1.0018   -1.6539 H   0  0  0  0  0  0
   -3.5412    1.6637   -2.7225 H   0  0  0  0  0  0
   -2.2641   -0.0322    0.9057 H   0  0  0  0  0  0
   -2.7098    1.6345    1.0322 H   0  0  0  0  0  0
    2.6892   -3.1738   -2.3225 H   0  0  0  0  0  0
   -5.1946    5.3428   -1.1687 H   0  0  0  0  0  0
   -3.8282    5.8220   -2.1594 H   0  0  0  0  0  0
    6.7039   -3.6454   -4.7020 H   0  0  0  0  0  0
    1.4548    1.7739    0.7363 H   0  0  0  0  0  0
    1.6927    0.1540    1.2918 H   0  0  0  0  0  0
   -4.9994    1.0708    0.1928 H   0  0  0  0  0  0
    2.5398   -4.3394   -4.2368 H   0  0  0  0  0  0
    1.1271   -3.4350   -4.7160 H   0  0  0  0  0  0
    6.6203   -1.4500   -4.2708 H   0  0  0  0  0  0
    7.2699   -1.1075   -5.8634 H   0  0  0  0  0  0
    2.6188   -1.5889   -5.5793 H   0  0  0  0  0  0
    2.9414   -3.1244   -6.3741 H   0  0  0  0  0  0
    4.8564   -0.8041   -5.9781 H   0  0  0  0  0  0
    5.2097   -2.2746   -6.8717 H   0  0  0  0  0  0
   -4.0849    5.7333   -4.7276 H   0  0  0  0  0  0
   -7.4188    5.4805   -2.0228 H   0  0  0  0  0  0
   -4.9782   -0.7459    2.4849 H   0  0  0  0  0  0
   -5.6193    0.8810    2.3307 H   0  0  0  0  0  0
   -3.9407    0.6321    2.7700 H   0  0  0  0  0  0
   -3.7939   -1.5799   -0.3454 H   0  0  0  0  0  0
   -5.2414   -0.8343   -1.0064 H   0  0  0  0  0  0
   -5.3139   -1.6909    0.5183 H   0  0  0  0  0  0
    3.7993    1.4946    1.4175 H   0  0  0  0  0  0
    3.7367    1.8069   -0.3129 H   0  0  0  0  0  0
    4.0294    0.1742    0.2813 H   0  0  0  0  0  0
   -5.6236    6.3673   -6.5550 H   0  0  0  0  0  0
   -8.9475    6.1143   -3.8556 H   0  0  0  0  0  0
   -8.0476    6.5550   -6.1142 H   0  0  0  0  0  0
  1  4  1  0  0  0
  1  7  1  0  0  0
  1  9  2  0  0  0
  2  3  1  0  0  0
  2  6  1  0  0  0
  2 10  2  0  0  0
  3  7  1  0  0  0
  3 34  1  0  0  0
  4 12  2  0  0  0
  4 15  1  0  0  0
  5  8  1  0  0  0
  5 11  2  0  0  0
  5 13  1  0  0  0
  6  8  1  0  0  0
  6 14  1  0  0  0
  6 35  1  0  0  0
  7 19  1  0  0  0
  7 36  1  0  0  0
  8 37  1  0  0  0
 13 16  1  0  0  0
 14 21  1  0  0  0
 14 38  1  0  0  0
 14 39  1  0  0  0
 15 22  1  0  0  0
 15 40  1  0  0  0
 16 17  1  0  0  0
 16 41  1  0  0  0
 16 42  1  0  0  0
 17 26  2  0  0  0
 17 27  1  0  0  0
 18 23  1  0  0  0
 18 43  1  0  0  0
 19 30  1  0  0  0
 19 44  1  0  0  0
 19 45  1  0  0  0
 20 24  1  0  0  0
 20 25  1  0  0  0
 21 28  1  0  0  0
 21 29  1  0  0  0
 21 46  1  0  0  0
 22 24  1  0  0  0
 22 47  1  0  0  0
 22 48  1  0  0  0
 23 25  1  0  0  0
 23 49  1  0  0  0
 23 50  1  0  0  0
 24 51  1  0  0  0
 24 52  1  0  0  0
 25 53  1  0  0  0
 25 54  1  0  0  0
 26 31  1  0  0  0
 26 55  1  0  0  0
 27 32  2  0  0  0
 27 56  1  0  0  0
 28 57  1  0  0  0
 28 58  1  0  0  0
 28 59  1  0  0  0
 29 60  1  0  0  0
 29 61  1  0  0  0
 29 62  1  0  0  0
 30 63  1  0  0  0
 30 64  1  0  0  0
 30 65  1  0  0  0
 31 33  2  0  0  0
 31 66  1  0  0  0
 32 33  1  0  0  0
 32 67  1  0  0  0
 33 68  1  0  0  0
M  END
> <chembl_id>
CHEMBL131264

> <chembl_pref_name>
None

> <s_m_source_file>
sdf/inactives_sanitized.sdf

> <i_m_source_file_index>
7

> <i_lp_mmshare_version>
49012

> <i_m_ct_stereo_status>
1

> <i_f3d_flags>
0

> <s_epik_input>
W09IXVtDSDJdW0NIMl1PW0NIMl1bQ0gyXVtOSF1DKD1PKUMoPU8pW0NASF0oW0NIMl1bQ0gzXSlbTkhdQyg9TylbQ0BASF0oW0NIMl1bQ0hdKFtDSDNdKVtDSDNdKVtOSF1DKD1PKU9bQ0gyXWMxW2NIXVtjSF1bY0hdW2NIXVtjSF0x

> <s_epik_cmdline>
J2VwaWtfcHl0aG9uJywgJy1waHQnLCAnMC41JywgJy1waCcsICc3LjUnLCAnLW50JywgJy1tYScsICcyMDAnLCAnLWltYWUnLCAnPGluZmlsZS5tYWU+JywgJy1vbWFlJywgJzxvdXRmaWxlLm1hZT4n

> <r_lp_tautomer_probability>
1

> <r_epik_Ionization_Penalty>
  0.0000

> <r_epik_Ionization_Penalty_Charging>
  0.0000

> <r_epik_Ionization_Penalty_Neutral>
  0.0000

> <r_epik_State_Penalty>
 -0.0000

> <r_epik_Charging_Adjusted_Penalty>
0

> <i_epik_Tot_Q>
0

> <i_epik_Tot_abs_Q>
0

> <s_epik_Chemistry_Notes>
This compound has an ester and may undergo hydrolysis at high or low pH.

> <s_lp_Force_Field>
OPLS3e

> <r_lp_Energy>
32.414786

> <b_lp_Chiralities_Consistent>
1

> <s_lp_Variant>
sdf/inactives_sanitized.sdf:7-1

$$$$
sdf/inactives_sanitized.sdf:8
                    3D
 Schrodinger Suite 2020-1.
 36 38  0  0  1  0            999 V2000
    0.4486    0.3949   -1.5701 C   0  0  0  0  0  0
    0.2269    0.0215   -2.7242 O   0  0  0  0  0  0
   -0.5270    0.8267   -0.7229 N   0  0  0  0  0  0
   -0.2452    1.6450    0.4729 C   0  0  0  0  0  0
   -0.3976    3.1256    0.0527 C   0  0  0  0  0  0
   -1.7846    3.4087   -0.5651 C   0  0  0  0  0  0
   -2.1434    2.3816   -1.6614 C   0  0  0  0  0  0
   -1.9226    0.9242   -1.1881 C   0  0  0  0  0  0
    5.2311    1.8328   -1.5578 N   0  0  0  0  0  0
    6.4774    1.7402   -1.0417 C   0  0  0  0  0  0
    6.8114    0.8795   -0.0069 C   0  0  0  0  0  0
    5.8209    0.0632    0.5261 C   0  0  0  0  0  0
    4.4938    0.1137    0.0084 C   0  0  0  0  0  0
    3.4338   -0.6985    0.5090 C   0  0  0  0  0  0
    2.1568   -0.5602   -0.0278 C   0  0  0  0  0  0
    1.8714    0.3411   -1.0528 C   0  0  0  0  0  0
    2.8998    1.1471   -1.5851 C   0  0  0  0  0  0
    4.2295    1.0416   -1.0530 C   0  0  0  0  0  0
    3.6430   -1.6883    1.5815 N   0  3  0  0  0  0
    2.9173   -1.6211    2.5685 O   0  0  0  0  0  0
    4.5068   -2.5442    1.4196 O   0  5  0  0  0  0
    2.6534    1.9867   -2.5214 O   0  5  0  0  0  0
   -0.9998    1.3860    1.2169 H   0  0  0  0  0  0
    0.6953    1.4019    0.9666 H   0  0  0  0  0  0
   -0.2439    3.7683    0.9198 H   0  0  0  0  0  0
    0.3917    3.3900   -0.6535 H   0  0  0  0  0  0
   -2.5401    3.3690    0.2211 H   0  0  0  0  0  0
   -1.8178    4.4207   -0.9700 H   0  0  0  0  0  0
   -3.1826    2.5135   -1.9636 H   0  0  0  0  0  0
   -1.5500    2.5683   -2.5582 H   0  0  0  0  0  0
   -2.5609    0.7036   -0.3314 H   0  0  0  0  0  0
   -2.1805    0.1556   -1.9183 H   0  0  0  0  0  0
    7.2241    2.3865   -1.4786 H   0  0  0  0  0  0
    7.8200    0.8455    0.3779 H   0  0  0  0  0  0
    6.0692   -0.6026    1.3383 H   0  0  0  0  0  0
    1.3649   -1.1847    0.3648 H   0  0  0  0  0  0
  1  2  2  0  0  0
  1  3  1  0  0  0
  1 16  1  0  0  0
  3  4  1  0  0  0
  3  8  1  0  0  0
  4  5  1  0  0  0
  4 23  1  0  0  0
  4 24  1  0  0  0
  5  6  1  0  0  0
  5 25  1  0  0  0
  5 26  1  0  0  0
  6  7  1  0  0  0
  6 27  1  0  0  0
  6 28  1  0  0  0
  7  8  1  0  0  0
  7 29  1  0  0  0
  7 30  1  0  0  0
  8 31  1  0  0  0
  8 32  1  0  0  0
  9 10  2  0  0  0
  9 18  1  0  0  0
 10 11  1  0  0  0
 10 33  1  0  0  0
 11 12  2  0  0  0
 11 34  1  0  0  0
 12 13  1  0  0  0
 12 35  1  0  0  0
 13 14  2  0  0  0
 13 18  1  0  0  0
 14 15  1  0  0  0
 14 19  1  0  0  0
 15 16  2  0  0  0
 15 36  1  0  0  0
 16 17  1  0  0  0
 17 18  2  0  0  0
 17 22  1  0  0  0
 19 20  2  0  0  0
 19 21  1  0  0  0
M  CHG  3  19   1  21  -1  22  -1
M  END
> <chembl_id>
CHEMBL4227015

> <chembl_pref_name>
None

> <s_m_source_file>
sdf/inactives_sanitized.sdf

> <i_m_source_file_index>
8

> <i_lp_mmshare_version>
49012

> <i_m_ct_stereo_status>
1

> <i_f3d_flags>
0

> <s_epik_input>
W0NIMl0xW0NIMl1bQ0gyXVtDSDJdW0NIMl1OMUMoPU8pYyhbY0hdYzJbTitdKD1PKVtPLV0pYyhbT0hdKWMoYzIzKW5bY0hdW2NIXVtjSF0z

> <s_epik_cmdline>
J2VwaWtfcHl0aG9uJywgJy1waHQnLCAnMC41JywgJy1waCcsICc3LjUnLCAnLW50JywgJy1tYScsICcyMDAnLCAnLWltYWUnLCAnPGluZmlsZS5tYWU+JywgJy1vbWFlJywgJzxvdXRmaWxlLm1hZT4n

> <r_lp_tautomer_probability>
1

> <r_epik_Ionization_Penalty>
  0.0000

> <r_epik_Ionization_Penalty_Charging>
  0.0000

> <r_epik_Ionization_Penalty_Neutral>
  0.0000

> <r_epik_State_Penalty>
 -0.0000

> <r_epik_Charging_Adjusted_Penalty>
8.8505867653771e-06

> <i_epik_Tot_Q>
-1

> <i_epik_Tot_abs_Q>
3

> <s_lp_Force_Field>
OPLS3e

> <r_lp_Energy>
34.071117

> <b_lp_Chiralities_Consistent>
1

> <s_lp_Variant>
sdf/inactives_sanitized.sdf:8-1

$$$$
sdf/inactives_sanitized.sdf:9
                    3D
 Schrodinger Suite 2020-1.
 27 28  0  0  1  0            999 V2000
   -0.1520    2.6999    0.0989 N   0  0  0  0  0  0
   -0.9095    3.8072    0.2667 C   0  0  0  0  0  0
   -2.2941    3.7775    0.3405 C   0  0  0  0  0  0
   -2.9414    2.5525    0.2290 C   0  0  0  0  0  0
   -2.1879    1.3571    0.0396 C   0  0  0  0  0  0
   -2.7938    0.0684   -0.0923 C   0  0  0  0  0  0
   -1.9814   -1.0541   -0.2397 C   0  0  0  0  0  0
   -0.5998   -0.9473   -0.2786 C   0  0  0  0  0  0
    0.0424    0.2891   -0.1680 C   0  0  0  0  0  0
   -0.7563    1.4746   -0.0050 C   0  0  0  0  0  0
    1.5538    0.3353   -0.2102 C   0  0  0  0  0  0
    2.1951    0.9479    0.6444 O   0  0  0  0  0  0
    2.1272   -0.3365   -1.2251 N   0  0  0  0  0  0
   -4.2570   -0.1170   -0.0828 N   0  3  0  0  0  0
   -4.7236   -0.9323    0.7065 O   0  0  0  0  0  0
   -4.9275    0.5261   -0.8840 O   0  5  0  0  0  0
    3.5654   -0.3852   -1.4742 C   0  0  0  0  0  0
    4.1269    0.9258   -1.8458 C   0  0  0  0  0  0
    4.5675    1.9548   -2.1383 N   0  0  0  0  0  0
   -0.3761    4.7429    0.3472 H   0  0  0  0  0  0
   -2.8579    4.6879    0.4814 H   0  0  0  0  0  0
   -4.0184    2.5201    0.2928 H   0  0  0  0  0  0
   -2.4305   -2.0325   -0.3346 H   0  0  0  0  0  0
   -0.0229   -1.8548   -0.3919 H   0  0  0  0  0  0
    1.5335   -0.7523   -1.9278 H   0  0  0  0  0  0
    3.7602   -1.0786   -2.2922 H   0  0  0  0  0  0
    4.0977   -0.7637   -0.6001 H   0  0  0  0  0  0
  1  2  2  0  0  0
  1 10  1  0  0  0
  2  3  1  0  0  0
  2 20  1  0  0  0
  3  4  2  0  0  0
  3 21  1  0  0  0
  4  5  1  0  0  0
  4 22  1  0  0  0
  5  6  2  0  0  0
  5 10  1  0  0  0
  6  7  1  0  0  0
  6 14  1  0  0  0
  7  8  2  0  0  0
  7 23  1  0  0  0
  8  9  1  0  0  0
  8 24  1  0  0  0
  9 10  2  0  0  0
  9 11  1  0  0  0
 11 12  2  0  0  0
 11 13  1  0  0  0
 13 17  1  0  0  0
 13 25  1  0  0  0
 14 15  2  0  0  0
 14 16  1  0  0  0
 17 18  1  0  0  0
 17 26  1  0  0  0
 17 27  1  0  0  0
 18 19  3  0  0  0
M  CHG  2  14   1  16  -1
M  END
> <chembl_id>
CHEMBL4228606

> <chembl_pref_name>
None

> <s_m_source_file>
sdf/inactives_sanitized.sdf

> <i_m_source_file_index>
9

> <i_lp_mmshare_version>
49012

> <i_m_ct_stereo_status>
1

> <i_f3d_flags>
0

> <s_epik_input>
W2NIXTFbY0hdW2NIXW5jKGMxMiljKFtjSF1bY0hdYzJbTitdKD1PKVtPLV0pQyg9TylbTkhdW0NIMl1DI04=

> <s_epik_cmdline>
J2VwaWtfcHl0aG9uJywgJy1waHQnLCAnMC41JywgJy1waCcsICc3LjUnLCAnLW50JywgJy1tYScsICcyMDAnLCAnLWltYWUnLCAnPGluZmlsZS5tYWU+JywgJy1vbWFlJywgJzxvdXRmaWxlLm1hZT4n

> <r_lp_tautomer_probability>
1

> <r_epik_Ionization_Penalty>
  0.0005

> <r_epik_Ionization_Penalty_Charging>
  0.0000

> <r_epik_Ionization_Penalty_Neutral>
  0.0005

> <r_epik_State_Penalty>
 -0.0000

> <r_epik_Charging_Adjusted_Penalty>
0

> <i_epik_Tot_Q>
0

> <i_epik_Tot_abs_Q>
2

> <s_lp_Force_Field>
OPLS3e

> <r_lp_Energy>
32.756207

> <b_lp_Chiralities_Consistent>
1

> <s_lp_Variant>
sdf/inactives_sanitized.sdf:9-1

$$$$
sdf/inactives_sanitized.sdf:10
                    3D
 Schrodinger Suite 2020-1.
 47 49  0  0  1  0            999 V2000
   -2.1923   -3.0605   -2.1627 N   0  0  0  0  0  0
   -2.0798   -3.9341   -3.1892 C   0  0  0  0  0  0
   -2.8364   -5.0927   -3.2898 C   0  0  0  0  0  0
   -3.7665   -5.3708   -2.2945 C   0  0  0  0  0  0
   -3.9329   -4.4743   -1.1988 C   0  0  0  0  0  0
   -4.8788   -4.6890   -0.1485 C   0  0  0  0  0  0
   -4.9484   -3.7719    0.8986 C   0  0  0  0  0  0
   -4.1313   -2.6520    0.9341 C   0  0  0  0  0  0
   -3.1956   -2.3894   -0.0682 C   0  0  0  0  0  0
   -3.0911   -3.3112   -1.1624 C   0  0  0  0  0  0
   -5.7924   -5.8469   -0.1361 N   0  3  0  0  0  0
   -5.8230   -6.5385    0.8768 O   0  0  0  0  0  0
   -6.4966   -6.0405   -1.1218 O   0  5  0  0  0  0
   -2.3480   -1.1651    0.0491 C   0  0  0  0  0  0
   -0.9520   -1.2453   -0.0002 C   0  0  0  0  0  0
   -0.1448   -0.0998    0.1127 C   0  0  0  0  0  0
   -0.7507    1.1528    0.2873 C   0  0  0  0  0  0
   -2.1516    1.2346    0.3455 C   0  0  0  0  0  0
   -2.9353    0.0899    0.2289 C   0  0  0  0  0  0
    1.2383   -0.1279    0.0627 O   0  0  0  0  0  0
    1.9134   -1.3676   -0.1315 C   0  0  0  0  0  0
    3.4255   -1.1041   -0.1665 C   0  0  0  0  0  0
    4.2494   -2.3828   -0.3758 C   0  0  0  0  0  0
    5.6284   -2.0423   -0.3913 O   0  0  0  0  0  0
    6.4840   -3.1583   -0.5841 C   0  0  0  0  0  0
    0.0868    2.2496    0.3937 O   0  0  0  0  0  0
   -0.4746    3.5457    0.5698 C   0  0  0  0  0  0
   -1.3517   -3.6880   -3.9479 H   0  0  0  0  0  0
   -2.7062   -5.7647   -4.1254 H   0  0  0  0  0  0
   -4.3553   -6.2729   -2.3620 H   0  0  0  0  0  0
   -5.6578   -3.9243    1.6995 H   0  0  0  0  0  0
   -4.2267   -1.9735    1.7699 H   0  0  0  0  0  0
   -0.5036   -2.2192   -0.1256 H   0  0  0  0  0  0
   -2.6533    2.1807    0.4798 H   0  0  0  0  0  0
   -4.0109    0.1835    0.2739 H   0  0  0  0  0  0
    1.5962   -1.8253   -1.0706 H   0  0  0  0  0  0
    1.6762   -2.0555    0.6824 H   0  0  0  0  0  0
    3.6497   -0.3952   -0.9649 H   0  0  0  0  0  0
    3.7302   -0.6266    0.7658 H   0  0  0  0  0  0
    4.0475   -3.0926    0.4290 H   0  0  0  0  0  0
    3.9694   -2.8564   -1.3190 H   0  0  0  0  0  0
    7.5218   -2.8255   -0.5830 H   0  0  0  0  0  0
    6.2915   -3.6474   -1.5404 H   0  0  0  0  0  0
    6.3679   -3.8921    0.2148 H   0  0  0  0  0  0
    0.3287    4.2800    0.6307 H   0  0  0  0  0  0
   -1.0507    3.6101    1.4941 H   0  0  0  0  0  0
   -1.1119    3.8234   -0.2711 H   0  0  0  0  0  0
  1  2  2  0  0  0
  1 10  1  0  0  0
  2  3  1  0  0  0
  2 28  1  0  0  0
  3  4  2  0  0  0
  3 29  1  0  0  0
  4  5  1  0  0  0
  4 30  1  0  0  0
  5  6  2  0  0  0
  5 10  1  0  0  0
  6  7  1  0  0  0
  6 11  1  0  0  0
  7  8  2  0  0  0
  7 31  1  0  0  0
  8  9  1  0  0  0
  8 32  1  0  0  0
  9 10  2  0  0  0
  9 14  1  0  0  0
 11 12  2  0  0  0
 11 13  1  0  0  0
 14 15  2  0  0  0
 14 19  1  0  0  0
 15 16  1  0  0  0
 15 33  1  0  0  0
 16 17  2  0  0  0
 16 20  1  0  0  0
 17 18  1  0  0  0
 17 26  1  0  0  0
 18 19  2  0  0  0
 18 34  1  0  0  0
 19 35  1  0  0  0
 20 21  1  0  0  0
 21 22  1  0  0  0
 21 36  1  0  0  0
 21 37  1  0  0  0
 22 23  1  0  0  0
 22 38  1  0  0  0
 22 39  1  0  0  0
 23 24  1  0  0  0
 23 40  1  0  0  0
 23 41  1  0  0  0
 24 25  1  0  0  0
 25 42  1  0  0  0
 25 43  1  0  0  0
 25 44  1  0  0  0
 26 27  1  0  0  0
 27 45  1  0  0  0
 27 46  1  0  0  0
 27 47  1  0  0  0
M  CHG  2  11   1  13  -1
M  END
> <chembl_id>
CHEMBL4227143

> <chembl_pref_name>
None

> <s_m_source_file>
sdf/inactives_sanitized.sdf

> <i_m_source_file_index>
10

> <i_lp_mmshare_version>
49012

> <i_m_ct_stereo_status>
1

> <i_f3d_flags>
0

> <s_epik_input>
W2NIXTFbY0hdW2NIXW5jKGMxMiljKFtjSF1bY0hdYzJbTitdKD1PKVtPLV0pLWMzW2NIXWMoYyhbY0hdW2NIXTMpT1tDSDNdKU9bQ0gyXVtDSDJdW0NIMl1PW0NIM10=

> <s_epik_cmdline>
J2VwaWtfcHl0aG9uJywgJy1waHQnLCAnMC41JywgJy1waCcsICc3LjUnLCAnLW50JywgJy1tYScsICcyMDAnLCAnLWltYWUnLCAnPGluZmlsZS5tYWU+JywgJy1vbWFlJywgJzxvdXRmaWxlLm1hZT4n

> <r_lp_tautomer_probability>
1

> <r_epik_Ionization_Penalty>
  0.0000

> <r_epik_Ionization_Penalty_Charging>
  0.0000

> <r_epik_Ionization_Penalty_Neutral>
  0.0000

> <r_epik_State_Penalty>
 -0.0000

> <r_epik_Charging_Adjusted_Penalty>
0

> <i_epik_Tot_Q>
0

> <i_epik_Tot_abs_Q>
2

> <s_lp_Force_Field>
OPLS3e

> <r_lp_Energy>
49.337688

> <b_lp_Chiralities_Consistent>
1

> <s_lp_Variant>
sdf/inactives_sanitized.sdf:10-1

$$$$
sdf/inactives_sanitized.sdf:11
                    3D
 Schrodinger Suite 2020-1.
 67 68  0  0  1  0            999 V2000
   -3.0138    1.3099   -0.7713 C   0  0  0  0  0  0
   -0.2342   -0.1756   -0.2732 C   0  0  0  0  0  0
   -3.5968   -0.0267   -1.3790 C   0  0  0  0  0  0
   -0.8135    0.9500    0.1921 N   0  0  0  0  0  0
    1.8437   -2.2120   -1.8876 C   0  0  0  0  0  0
    1.2899   -0.0818   -0.5419 C   0  0  2  0  0  0
   -2.2306    1.1641    0.5369 C   0  0  1  0  0  0
    1.7536   -0.8222   -1.7418 N   0  0  0  0  0  0
   -3.6296    0.0015   -2.7238 N   0  0  0  0  0  0
   -3.2048    2.3874   -1.3434 O   0  0  0  0  0  0
   -0.8379   -1.2331   -0.4492 O   0  0  0  0  0  0
    2.2048   -2.7620   -2.9285 O   0  0  0  0  0  0
   -3.9428   -0.9653   -0.6598 O   0  0  0  0  0  0
    1.4857   -2.8773   -0.7689 O   0  0  0  0  0  0
    2.1695   -0.3891    0.7128 C   0  0  0  0  0  0
   -3.9824   -1.1382   -3.5682 C   0  0  0  0  0  0
    1.4484   -4.2969   -0.7248 C   0  0  0  0  0  0
   -2.9493   -2.2601   -3.5479 C   0  0  0  0  0  0
    0.6709   -4.7347    0.5031 C   0  0  0  0  0  0
   -2.4142    2.4195    1.4303 C   0  0  0  0  0  0
    2.0731    0.6234    1.8804 C   0  0  0  0  0  0
    1.3246   -5.3959    1.5452 C   0  0  0  0  0  0
   -0.6985   -4.4696    0.5878 C   0  0  0  0  0  0
   -3.2023   -3.4328   -2.8303 C   0  0  0  0  0  0
   -1.7706   -2.1330   -4.2881 C   0  0  0  0  0  0
    2.4486    2.0614    1.4624 C   0  0  0  0  0  0
    2.8900    0.1404    3.0982 C   0  0  0  0  0  0
   -1.7125    2.3219    2.7953 C   0  0  0  0  0  0
    0.6085   -5.7898    2.6729 C   0  0  0  0  0  0
   -2.2698   -4.4665   -2.8369 C   0  0  0  0  0  0
   -0.8394   -3.1675   -4.2952 C   0  0  0  0  0  0
   -1.4136   -4.8625    1.7154 C   0  0  0  0  0  0
   -0.7567   -5.5212    2.7528 C   0  0  0  0  0  0
   -1.0925   -4.3286   -3.5687 C   0  0  0  0  0  0
   -0.2293    1.7651    0.3084 H   0  0  0  0  0  0
    1.5065    0.9465   -0.8336 H   0  0  0  0  0  0
   -2.5909    0.3173    1.1255 H   0  0  0  0  0  0
    1.8712   -0.2694   -2.5782 H   0  0  0  0  0  0
   -3.3069    0.8324   -3.1979 H   0  0  0  0  0  0
    1.9209   -1.3734    1.1101 H   0  0  0  0  0  0
    3.2166   -0.4453    0.4095 H   0  0  0  0  0  0
   -4.9706   -1.5178   -3.2999 H   0  0  0  0  0  0
   -4.0761   -0.7734   -4.5919 H   0  0  0  0  0  0
    0.9657   -4.7090   -1.6119 H   0  0  0  0  0  0
    2.4645   -4.6933   -0.6960 H   0  0  0  0  0  0
   -2.0391    3.3089    0.9198 H   0  0  0  0  0  0
   -3.4774    2.5927    1.6074 H   0  0  0  0  0  0
    1.0350    0.6400    2.2107 H   0  0  0  0  0  0
    2.3835   -5.6019    1.4856 H   0  0  0  0  0  0
   -1.2063   -3.9545   -0.2146 H   0  0  0  0  0  0
   -4.1146   -3.5408   -2.2618 H   0  0  0  0  0  0
   -1.5737   -1.2335   -4.8531 H   0  0  0  0  0  0
    3.0107    2.0817    0.5286 H   0  0  0  0  0  0
    3.0560    2.5711    2.2103 H   0  0  0  0  0  0
    1.5527    2.6661    1.3189 H   0  0  0  0  0  0
    3.7459    0.7805    3.3122 H   0  0  0  0  0  0
    3.2812   -0.8674    2.9554 H   0  0  0  0  0  0
    2.2699    0.1174    3.9948 H   0  0  0  0  0  0
   -1.9239    3.2021    3.4031 H   0  0  0  0  0  0
   -0.6306    2.2550    2.6862 H   0  0  0  0  0  0
   -2.0487    1.4472    3.3528 H   0  0  0  0  0  0
    1.1093   -6.3001    3.4823 H   0  0  0  0  0  0
   -2.4572   -5.3703   -2.2760 H   0  0  0  0  0  0
    0.0758   -3.0701   -4.8604 H   0  0  0  0  0  0
   -2.4715   -4.6559    1.7850 H   0  0  0  0  0  0
   -1.3114   -5.8255    3.6282 H   0  0  0  0  0  0
   -0.3684   -5.1297   -3.5734 H   0  0  0  0  0  0
  1  3  1  0  0  0
  1  7  1  0  0  0
  1 10  2  0  0  0
  2  4  1  0  0  0
  2  6  1  0  0  0
  2 11  2  0  0  0
  3  9  1  0  0  0
  3 13  2  0  0  0
  4  7  1  0  0  0
  4 35  1  0  0  0
  5  8  1  0  0  0
  5 12  2  0  0  0
  5 14  1  0  0  0
  6  8  1  0  0  0
  6 15  1  0  0  0
  6 36  1  0  0  0
  7 20  1  0  0  0
  7 37  1  0  0  0
  8 38  1  0  0  0
  9 16  1  0  0  0
  9 39  1  0  0  0
 14 17  1  0  0  0
 15 21  1  0  0  0
 15 40  1  0  0  0
 15 41  1  0  0  0
 16 18  1  0  0  0
 16 42  1  0  0  0
 16 43  1  0  0  0
 17 19  1  0  0  0
 17 44  1  0  0  0
 17 45  1  0  0  0
 18 24  2  0  0  0
 18 25  1  0  0  0
 19 22  2  0  0  0
 19 23  1  0  0  0
 20 28  1  0  0  0
 20 46  1  0  0  0
 20 47  1  0  0  0
 21 26  1  0  0  0
 21 27  1  0  0  0
 21 48  1  0  0  0
 22 29  1  0  0  0
 22 49  1  0  0  0
 23 32  2  0  0  0
 23 50  1  0  0  0
 24 30  1  0  0  0
 24 51  1  0  0  0
 25 31  2  0  0  0
 25 52  1  0  0  0
 26 53  1  0  0  0
 26 54  1  0  0  0
 26 55  1  0  0  0
 27 56  1  0  0  0
 27 57  1  0  0  0
 27 58  1  0  0  0
 28 59  1  0  0  0
 28 60  1  0  0  0
 28 61  1  0  0  0
 29 33  2  0  0  0
 29 62  1  0  0  0
 30 34  2  0  0  0
 30 63  1  0  0  0
 31 34  1  0  0  0
 31 64  1  0  0  0
 32 33  1  0  0  0
 32 65  1  0  0  0
 33 66  1  0  0  0
 34 67  1  0  0  0
M  END
> <chembl_id>
CHEMBL118025

> <chembl_pref_name>
None

> <s_m_source_file>
sdf/inactives_sanitized.sdf

> <i_m_source_file_index>
11

> <i_lp_mmshare_version>
49012

> <i_m_ct_stereo_status>
1

> <i_f3d_flags>
0

> <s_epik_input>
W2NIXTFbY0hdW2NIXVtjSF1bY0hdYzFbQ0gyXVtOSF1DKD1PKUMoPU8pW0NASF0oW0NIMl1bQ0gzXSlbTkhdQyg9TylbQ0BASF0oW0NIMl1bQ0hdKFtDSDNdKVtDSDNdKVtOSF1DKD1PKU9bQ0gyXWMyW2NIXVtjSF1bY0hdW2NIXVtjSF0y

> <s_epik_cmdline>
J2VwaWtfcHl0aG9uJywgJy1waHQnLCAnMC41JywgJy1waCcsICc3LjUnLCAnLW50JywgJy1tYScsICcyMDAnLCAnLWltYWUnLCAnPGluZmlsZS5tYWU+JywgJy1vbWFlJywgJzxvdXRmaWxlLm1hZT4n

> <r_lp_tautomer_probability>
1

> <r_epik_Ionization_Penalty>
  0.0000

> <r_epik_Ionization_Penalty_Charging>
  0.0000

> <r_epik_Ionization_Penalty_Neutral>
  0.0000

> <r_epik_State_Penalty>
 -0.0000

> <r_epik_Charging_Adjusted_Penalty>
0

> <i_epik_Tot_Q>
0

> <i_epik_Tot_abs_Q>
0

> <s_epik_Chemistry_Notes>
This compound has an ester and may undergo hydrolysis at high or low pH.

> <s_lp_Force_Field>
OPLS3e

> <r_lp_Energy>
38.310375

> <b_lp_Chiralities_Consistent>
1

> <s_lp_Variant>
sdf/inactives_sanitized.sdf:11-1

$$$$
sdf/inactives_sanitized.sdf:12
                    3D
 Schrodinger Suite 2020-1.
 65 68  0  0  1  0            999 V2000
   -0.2595   -2.2128   -1.2795 C   0  0  0  0  0  0
   -0.6466   -0.7181   -1.2348 C   0  0  0  0  0  0
   -0.0999    0.0038    0.0477 C   0  0  0  0  0  0
   -0.7190   -0.7621    1.2606 C   0  0  0  0  0  0
   -0.3433   -2.2611    1.2775 C   0  0  0  0  0  0
   -0.7649   -2.9607   -0.0299 C   0  0  0  0  0  0
    1.3790   -0.0032    0.1323 N   0  0  0  0  0  0
   -0.6925    1.4544    0.1760 C   0  0  0  0  0  0
   -1.8647    1.7413   -0.4237 N   0  0  0  0  0  0
   -0.1077    2.2944    0.8645 O   0  0  0  0  0  0
   -2.5632    3.0197   -0.3214 C   0  0  0  0  0  0
   -3.0612    3.2890    1.0391 C   0  0  0  0  0  0
   -3.4526    3.4997    2.1074 N   0  0  0  0  0  0
    2.2630    0.6205   -0.6779 C   0  0  0  0  0  0
    3.7275    0.3657   -0.3922 C   0  0  0  0  0  0
    1.9210    1.3788   -1.5879 O   0  0  0  0  0  0
    4.6952    1.2452   -0.8918 C   0  0  0  0  0  0
    6.0475    1.0256   -0.6465 C   0  0  0  0  0  0
    6.4690   -0.0812    0.1022 C   0  0  0  0  0  0
    5.5014   -0.9616    0.6002 C   0  0  0  0  0  0
    4.1482   -0.7435    0.3567 C   0  0  0  0  0  0
    7.9291   -0.3320    0.3699 C   0  0  0  0  0  0
    8.8556    0.4433   -0.1754 N   0  0  0  0  0  0
   10.0884    0.1219    0.1377 C   0  0  0  0  0  0
   10.1933   -1.2598    1.1830 S   0  0  0  0  0  0
    8.4612   -1.3467    1.1703 C   0  0  0  0  0  0
   11.2857    0.8871   -0.4039 C   0  0  2  0  0  0
   11.8441    0.2572   -1.6994 C   0  0  0  0  0  0
   13.0003    1.0871   -2.2876 C   0  0  0  0  0  0
   14.1028    1.2403   -1.2166 N   0  3  2  0  0  0
   13.5703    1.9311    0.0581 C   0  0  0  0  0  0
   12.4158    1.0905    0.6324 C   0  0  0  0  0  0
   15.2901    2.0382   -1.7914 C   0  0  0  0  0  0
    0.8245   -2.3145   -1.3531 H   0  0  0  0  0  0
   -0.6685   -2.6761   -2.1782 H   0  0  0  0  0  0
   -1.7224   -0.6004   -1.3733 H   0  0  0  0  0  0
   -0.1951   -0.2625   -2.1177 H   0  0  0  0  0  0
   -0.3144   -0.3457    2.1864 H   0  0  0  0  0  0
   -1.7995   -0.6198    1.3442 H   0  0  0  0  0  0
    0.7321   -2.3745    1.4217 H   0  0  0  0  0  0
   -0.8155   -2.7533    2.1288 H   0  0  0  0  0  0
   -1.8536   -3.0246   -0.0668 H   0  0  0  0  0  0
   -0.4011   -3.9889   -0.0373 H   0  0  0  0  0  0
    1.7565   -0.7775    0.6577 H   0  0  0  0  0  0
   -2.3423    1.0082   -0.9272 H   0  0  0  0  0  0
   -1.9167    3.8424   -0.6314 H   0  0  0  0  0  0
   -3.4182    3.0112   -0.9975 H   0  0  0  0  0  0
    4.4099    2.1104   -1.4738 H   0  0  0  0  0  0
    6.7636    1.7280   -1.0472 H   0  0  0  0  0  0
    5.7844   -1.8275    1.1792 H   0  0  0  0  0  0
    3.4371   -1.4530    0.7550 H   0  0  0  0  0  0
    7.9465   -2.1134    1.7299 H   0  0  0  0  0  0
   10.9608    1.8928   -0.6815 H   0  0  0  0  0  0
   12.2113   -0.7524   -1.5077 H   0  0  0  0  0  0
   11.0633    0.2115   -2.4602 H   0  0  0  0  0  0
   13.4564    0.5922   -3.1464 H   0  0  0  0  0  0
   12.6851    2.0923   -2.5742 H   0  0  0  0  0  0
   14.4059    2.0004    0.7562 H   0  0  0  0  0  0
   13.2512    2.9357   -0.2260 H   0  0  0  0  0  0
   12.0320    1.6204    1.5054 H   0  0  0  0  0  0
   12.8268    0.1318    0.9525 H   0  0  0  0  0  0
   14.9334    3.0337   -2.0614 H   0  0  0  0  0  0
   15.6552    1.4923   -2.6623 H   0  0  0  0  0  0
   16.0552    2.0826   -1.0153 H   0  0  0  0  0  0
   14.4228    0.3161   -0.9620 H   0  0  0  0  0  0
  1  6  1  0  0  0
  1  2  1  0  0  0
  1 34  1  0  0  0
  1 35  1  0  0  0
  2  3  1  0  0  0
  2 36  1  0  0  0
  2 37  1  0  0  0
  3  8  1  0  0  0
  3  4  1  0  0  0
  3  7  1  0  0  0
  4  5  1  0  0  0
  4 38  1  0  0  0
  4 39  1  0  0  0
  5  6  1  0  0  0
  5 40  1  0  0  0
  5 41  1  0  0  0
  6 42  1  0  0  0
  6 43  1  0  0  0
  7 14  1  0  0  0
  7 44  1  0  0  0
  8  9  1  0  0  0
  8 10  2  0  0  0
  9 11  1  0  0  0
  9 45  1  0  0  0
 11 12  1  0  0  0
 11 46  1  0  0  0
 11 47  1  0  0  0
 12 13  3  0  0  0
 14 15  1  0  0  0
 14 16  2  0  0  0
 15 17  2  0  0  0
 15 21  1  0  0  0
 17 18  1  0  0  0
 17 48  1  0  0  0
 18 19  2  0  0  0
 18 49  1  0  0  0
 19 20  1  0  0  0
 19 22  1  0  0  0
 20 21  2  0  0  0
 20 50  1  0  0  0
 21 51  1  0  0  0
 22 23  1  0  0  0
 22 26  2  0  0  0
 23 24  2  0  0  0
 24 25  1  0  0  0
 24 27  1  0  0  0
 25 26  1  0  0  0
 26 52  1  0  0  0
 27 28  1  0  0  0
 27 32  1  0  0  0
 27 53  1  0  0  0
 28 29  1  0  0  0
 28 54  1  0  0  0
 28 55  1  0  0  0
 29 30  1  0  0  0
 29 56  1  0  0  0
 29 57  1  0  0  0
 30 31  1  0  0  0
 30 33  1  0  0  0
 30 65  1  0  0  0
 31 32  1  0  0  0
 31 58  1  0  0  0
 31 59  1  0  0  0
 32 60  1  0  0  0
 32 61  1  0  0  0
 33 62  1  0  0  0
 33 63  1  0  0  0
 33 64  1  0  0  0
M  CHG  1  30   1
M  END
> <chembl_id>
CHEMBL200455

> <chembl_pref_name>
None

> <s_m_source_file>
sdf/inactives_sanitized.sdf

> <i_m_source_file_index>
12

> <i_lp_mmshare_version>
49012

> <i_m_ct_stereo_status>
1

> <i_f3d_flags>
0

> <s_epik_input>
W0NIMl0xW0NIMl1bQ0gyXVtDSDJdW0NIMl1DMShDKD1PKVtOSF1bQ0gyXUMjTilbTkhdQyg9TyljMltjSF1bY0hdYyhbY0hdW2NIXTIpLWMzbmMoc1tjSF0zKVtDSF00W0NIMl1bQ0gyXU4oW0NIM10pW0NIMl1bQ0gyXTQ=

> <s_epik_cmdline>
J2VwaWtfcHl0aG9uJywgJy1waHQnLCAnMC41JywgJy1waCcsICc3LjUnLCAnLW50JywgJy1tYScsICcyMDAnLCAnLWltYWUnLCAnPGluZmlsZS5tYWU+JywgJy1vbWFlJywgJzxvdXRmaWxlLm1hZT4n

> <r_epik_Ionization_Penalty>
  0.0178

> <r_epik_Ionization_Penalty_Charging>
  0.0178

> <r_epik_Ionization_Penalty_Neutral>
  0.0000

> <r_epik_State_Penalty>
  0.0141

> <r_epik_Charging_Adjusted_Penalty>
0.0319603423877744

> <i_epik_Tot_Q>
1

> <i_epik_Tot_abs_Q>
1

> <s_lp_Force_Field>
OPLS3e

> <r_lp_Energy>
51.177459

> <b_lp_Chiralities_Consistent>
1

> <s_lp_Variant>
sdf/inactives_sanitized.sdf:12-1

$$$$
sdf/inactives_sanitized.sdf:13
                    3D
 Schrodinger Suite 2020-1.
 37 38  0  0  1  0            999 V2000
   -0.4658   -1.1182   -1.6912 C   0  0  0  0  0  0
   -0.2857   -1.2162    0.1589 S   0  0  1  0  0  0
    1.8810   -0.7016    0.1572 S   0  0  0  0  0  0
    2.2037   -1.0300    1.9164 C   0  0  0  0  0  0
   -1.1052   -0.0709    0.7570 O   0  0  0  0  0  0
    0.1471   -2.3936   -2.3165 C   0  0  0  0  0  0
   -0.1205   -2.4741   -3.8327 C   0  0  0  0  0  0
   -1.6197   -2.3356   -4.1634 C   0  0  0  0  0  0
   -2.2334   -1.0670   -3.5387 C   0  0  0  0  0  0
   -1.9699   -0.9865   -2.0221 C   0  0  0  0  0  0
    2.6157   -2.5032    2.1289 C   0  0  0  0  0  0
    2.9809   -2.7925    3.5987 C   0  0  0  0  0  0
    4.0417   -1.8110    4.1352 C   0  0  0  0  0  0
    3.6240   -0.3418    3.9280 C   0  0  0  0  0  0
    3.2627   -0.0459    2.4586 C   0  0  0  0  0  0
    0.0622   -0.2322   -2.0473 H   0  0  0  0  0  0
    1.2703   -0.8434    2.4501 H   0  0  0  0  0  0
   -0.2689   -3.2800   -1.8343 H   0  0  0  0  0  0
    1.2222   -2.4282   -2.1381 H   0  0  0  0  0  0
    0.4364   -1.6850   -4.3405 H   0  0  0  0  0  0
    0.2606   -3.4165   -4.2277 H   0  0  0  0  0  0
   -1.7619   -2.3231   -5.2447 H   0  0  0  0  0  0
   -2.1535   -3.2139   -3.7969 H   0  0  0  0  0  0
   -1.8158   -0.1845   -4.0260 H   0  0  0  0  0  0
   -3.3066   -1.0401   -3.7309 H   0  0  0  0  0  0
   -2.5327   -1.7758   -1.5206 H   0  0  0  0  0  0
   -2.3579   -0.0432   -1.6351 H   0  0  0  0  0  0
    1.8092   -3.1679    1.8164 H   0  0  0  0  0  0
    3.4750   -2.7398    1.4991 H   0  0  0  0  0  0
    2.0823   -2.7251    4.2139 H   0  0  0  0  0  0
    3.3398   -3.8176    3.6970 H   0  0  0  0  0  0
    4.2204   -2.0002    5.1943 H   0  0  0  0  0  0
    4.9917   -1.9918    3.6297 H   0  0  0  0  0  0
    2.7667   -0.1164    4.5641 H   0  0  0  0  0  0
    4.4258    0.3218    4.2539 H   0  0  0  0  0  0
    4.1689   -0.1089    1.8536 H   0  0  0  0  0  0
    2.9020    0.9802    2.3724 H   0  0  0  0  0  0
  1 10  1  0  0  0
  1  6  1  0  0  0
  1  2  1  0  0  0
  1 16  1  0  0  0
  2  5  2  0  0  0
  2  3  1  0  0  0
  3  4  1  0  0  0
  4 11  1  0  0  0
  4 15  1  0  0  0
  4 17  1  0  0  0
  6  7  1  0  0  0
  6 18  1  0  0  0
  6 19  1  0  0  0
  7  8  1  0  0  0
  7 20  1  0  0  0
  7 21  1  0  0  0
  8  9  1  0  0  0
  8 22  1  0  0  0
  8 23  1  0  0  0
  9 10  1  0  0  0
  9 24  1  0  0  0
  9 25  1  0  0  0
 10 26  1  0  0  0
 10 27  1  0  0  0
 11 12  1  0  0  0
 11 28  1  0  0  0
 11 29  1  0  0  0
 12 13  1  0  0  0
 12 30  1  0  0  0
 12 31  1  0  0  0
 13 14  1  0  0  0
 13 32  1  0  0  0
 13 33  1  0  0  0
 14 15  1  0  0  0
 14 34  1  0  0  0
 14 35  1  0  0  0
 15 36  1  0  0  0
 15 37  1  0  0  0
M  END
> <chembl_id>
CHEMBL1224169

> <chembl_pref_name>
None

> <s_m_source_file>
sdf/inactives_sanitized.sdf

> <i_m_source_file_index>
13

> <i_lp_mmshare_version>
49012

> <i_m_ct_stereo_status>
1

> <i_f3d_flags>
0

> <s_epik_input>
W0NIMl0xW0NIMl1bQ0gyXVtDSDJdW0NIMl1bQ0hdMVtTK10oW08tXSlTW0NIXTJbQ0gyXVtDSDJdW0NIMl1bQ0gyXVtDSDJdMg==

> <s_epik_cmdline>
J2VwaWtfcHl0aG9uJywgJy1waHQnLCAnMC41JywgJy1waCcsICc3LjUnLCAnLW50JywgJy1tYScsICcyMDAnLCAnLWltYWUnLCAnPGluZmlsZS5tYWU+JywgJy1vbWFlJywgJzxvdXRmaWxlLm1hZT4n

> <r_lp_tautomer_probability>
1

> <r_epik_Ionization_Penalty>
  0.0000

> <r_epik_Ionization_Penalty_Charging>
  0.0000

> <r_epik_Ionization_Penalty_Neutral>
  0.0000

> <r_epik_State_Penalty>
 -0.0000

> <r_epik_Charging_Adjusted_Penalty>
0

> <i_epik_Tot_Q>
0

> <i_epik_Tot_abs_Q>
2

> <s_lp_Force_Field>
OPLS3e

> <r_lp_Energy>
6.683775

> <b_lp_Chiralities_Consistent>
1

> <s_lp_Variant>
sdf/inactives_sanitized.sdf:13-1

$$$$
sdf/inactives_sanitized.sdf:14
                    3D
 Schrodinger Suite 2020-1.
 19 18  0  0  1  0            999 V2000
   -1.4920    2.3689   -0.3879 C   0  0  0  0  0  0
   -0.0630    1.8681   -0.3974 C   0  0  0  0  0  0
   -1.9753    3.2878    0.4627 C   0  0  0  0  0  0
    0.1042    0.1536    0.1611 S   0  0  0  0  0  0
    2.3189    0.0402   -0.0323 S   0  0  2  0  0  0
    2.4248   -1.7812    0.3151 C   0  0  0  0  0  0
    1.7604   -2.6196   -0.7606 C   0  0  0  0  0  0
    0.6137   -3.2997   -0.6050 C   0  0  0  0  0  0
    3.0015    0.7517    1.1372 O   0  0  0  0  0  0
   -2.1488    1.9455   -1.1341 H   0  0  0  0  0  0
    0.3261    1.9463   -1.4128 H   0  0  0  0  0  0
    0.5583    2.4997    0.2393 H   0  0  0  0  0  0
   -1.3497    3.7366    1.2205 H   0  0  0  0  0  0
   -3.0070    3.6037    0.4117 H   0  0  0  0  0  0
    3.4738   -2.0679    0.3891 H   0  0  0  0  0  0
    1.9730   -1.9715    1.2896 H   0  0  0  0  0  0
    2.2674   -2.6566   -1.7140 H   0  0  0  0  0  0
    0.0759   -3.2878    0.3319 H   0  0  0  0  0  0
    0.1964   -3.8783   -1.4159 H   0  0  0  0  0  0
  1  3  2  0  0  0
  1  2  1  0  0  0
  1 10  1  0  0  0
  2  4  1  0  0  0
  2 11  1  0  0  0
  2 12  1  0  0  0
  3 13  1  0  0  0
  3 14  1  0  0  0
  4  5  1  0  0  0
  5  6  1  0  0  0
  5  9  2  0  0  0
  6  7  1  0  0  0
  6 15  1  0  0  0
  6 16  1  0  0  0
  7  8  2  0  0  0
  7 17  1  0  0  0
  8 18  1  0  0  0
  8 19  1  0  0  0
M  END
> <chembl_id>
CHEMBL359965

> <chembl_pref_name>
ALLICIN

> <s_m_source_file>
sdf/inactives_sanitized.sdf

> <i_m_source_file_index>
14

> <i_lp_mmshare_version>
49012

> <i_m_ct_stereo_status>
1

> <i_f3d_flags>
0

> <s_epik_input>
W0NIMl09W0NIXVtDSDJdU1tTK10oW08tXSlbQ0gyXVtDSF09W0NIMl0=

> <s_epik_cmdline>
J2VwaWtfcHl0aG9uJywgJy1waHQnLCAnMC41JywgJy1waCcsICc3LjUnLCAnLW50JywgJy1tYScsICcyMDAnLCAnLWltYWUnLCAnPGluZmlsZS5tYWU+JywgJy1vbWFlJywgJzxvdXRmaWxlLm1hZT4n

> <r_lp_tautomer_probability>
1

> <r_epik_Ionization_Penalty>
  0.0000

> <r_epik_Ionization_Penalty_Charging>
  0.0000

> <r_epik_Ionization_Penalty_Neutral>
  0.0000

> <r_epik_State_Penalty>
 -0.0000

> <r_epik_Charging_Adjusted_Penalty>
0

> <i_epik_Tot_Q>
0

> <i_epik_Tot_abs_Q>
2

> <s_lp_Force_Field>
OPLS3e

> <r_lp_Energy>
-2.761015

> <b_lp_Chiralities_Consistent>
1

> <s_lp_Variant>
sdf/inactives_sanitized.sdf:14-1

$$$$
sdf/inactives_sanitized.sdf:15
                    3D
 Schrodinger Suite 2020-1.
 70 71  0  0  1  0            999 V2000
   -1.5908    2.7342   -1.0510 C   0  0  0  0  0  0
    0.2854    0.0624    0.0196 C   0  0  0  0  0  0
   -0.1733    1.3096    0.2294 N   0  0  0  0  0  0
   -1.5574    2.0936   -2.5054 C   0  0  0  0  0  0
    2.8104   -0.5185   -1.9614 C   0  0  0  0  0  0
    1.7834   -0.1637    0.3330 C   0  0  2  0  0  0
   -1.5707    1.7456    0.1160 C   0  0  1  0  0  0
    2.4400   -0.9916   -0.6988 N   0  0  0  0  0  0
   -1.6662    3.9588   -0.9073 O   0  0  0  0  0  0
   -0.4129   -0.8800   -0.3575 O   0  0  0  0  0  0
    3.2953   -1.2308   -2.8410 O   0  0  0  0  0  0
   -1.5451    0.8737   -2.6745 O   0  0  0  0  0  0
    2.5960    0.8143   -2.0956 O   0  0  0  0  0  0
    1.9782   -0.8769    1.7004 C   0  0  0  0  0  0
   -1.5511    3.0197   -3.4829 N   0  0  0  0  0  0
    2.9768    1.5050   -3.2816 C   0  0  0  0  0  0
   -1.5272    2.7069   -4.9104 C   0  0  0  0  0  0
    2.6267    2.9896   -3.2233 C   0  0  0  0  0  0
   -0.1587    1.8543   -6.8932 C   0  0  0  0  0  0
   -2.0679    2.3511    1.4552 C   0  0  0  0  0  0
    1.5013   -0.0946    2.9509 C   0  0  0  0  0  0
   -0.1530    2.2338   -5.4208 C   0  0  0  0  0  0
    3.0832    3.8157   -4.2538 C   0  0  0  0  0  0
    1.8536    3.5345   -2.1897 C   0  0  0  0  0  0
   -0.5478    0.5683   -7.2779 C   0  0  0  0  0  0
    0.2292    2.7884   -7.8573 C   0  0  0  0  0  0
    2.1967    1.2756    3.0981 C   0  0  0  0  0  0
    1.6360   -0.9560    4.2251 C   0  0  0  0  0  0
   -3.5632    2.7143    1.4836 C   0  0  0  0  0  0
    2.7640    5.1710   -4.2592 C   0  0  0  0  0  0
   -0.5483    0.2169   -8.6251 C   0  0  0  0  0  0
    0.2296    2.4356   -9.2044 C   0  0  0  0  0  0
    1.5337    4.8892   -2.1951 C   0  0  0  0  0  0
    1.9890    5.7013   -3.2305 C   0  0  0  0  0  0
   -0.1591    1.1519   -9.5820 C   0  0  0  0  0  0
    0.4668    2.0052    0.5843 H   0  0  0  0  0  0
    2.3095    0.7920    0.3865 H   0  0  0  0  0  0
   -2.2312    0.9038   -0.1072 H   0  0  0  0  0  0
    2.5233   -1.9808   -0.5150 H   0  0  0  0  0  0
    1.4698   -1.8435    1.6759 H   0  0  0  0  0  0
    3.0374   -1.1041    1.8366 H   0  0  0  0  0  0
   -1.5660    3.9974   -3.2299 H   0  0  0  0  0  0
    4.0535    1.4024   -3.4282 H   0  0  0  0  0  0
    2.4784    1.0599   -4.1443 H   0  0  0  0  0  0
   -2.2868    1.9590   -5.1478 H   0  0  0  0  0  0
   -1.8507    3.5748   -5.4859 H   0  0  0  0  0  0
   -1.8820    1.6288    2.2519 H   0  0  0  0  0  0
   -1.4705    3.2239    1.7259 H   0  0  0  0  0  0
    0.4344    0.0983    2.8332 H   0  0  0  0  0  0
    0.1926    1.3752   -4.8430 H   0  0  0  0  0  0
    0.5898    3.0126   -5.2514 H   0  0  0  0  0  0
    3.6775    3.4063   -5.0581 H   0  0  0  0  0  0
    1.4876    2.9179   -1.3832 H   0  0  0  0  0  0
   -0.8488   -0.1570   -6.5356 H   0  0  0  0  0  0
    0.5317    3.7836   -7.5651 H   0  0  0  0  0  0
    3.1107    1.3359    2.5069 H   0  0  0  0  0  0
    2.4692    1.5000    4.1294 H   0  0  0  0  0  0
    1.5371    2.0774    2.7645 H   0  0  0  0  0  0
    2.3882   -0.5724    4.9144 H   0  0  0  0  0  0
    1.9173   -1.9845    3.9966 H   0  0  0  0  0  0
    0.6904   -0.9967    4.7667 H   0  0  0  0  0  0
   -3.8524    3.0842    2.4676 H   0  0  0  0  0  0
   -4.1845    1.8457    1.2632 H   0  0  0  0  0  0
   -3.8061    3.4916    0.7590 H   0  0  0  0  0  0
    3.1130    5.8073   -5.0591 H   0  0  0  0  0  0
   -0.8476   -0.7762   -8.9263 H   0  0  0  0  0  0
    0.5312    3.1533   -9.9530 H   0  0  0  0  0  0
    0.9317    5.3068   -1.4015 H   0  0  0  0  0  0
    1.7385    6.7519   -3.2354 H   0  0  0  0  0  0
   -0.1580    0.8783  -10.6268 H   0  0  0  0  0  0
  1  4  1  0  0  0
  1  7  1  0  0  0
  1  9  2  0  0  0
  2  3  1  0  0  0
  2  6  1  0  0  0
  2 10  2  0  0  0
  3  7  1  0  0  0
  3 36  1  0  0  0
  4 12  2  0  0  0
  4 15  1  0  0  0
  5  8  1  0  0  0
  5 11  2  0  0  0
  5 13  1  0  0  0
  6  8  1  0  0  0
  6 14  1  0  0  0
  6 37  1  0  0  0
  7 20  1  0  0  0
  7 38  1  0  0  0
  8 39  1  0  0  0
 13 16  1  0  0  0
 14 21  1  0  0  0
 14 40  1  0  0  0
 14 41  1  0  0  0
 15 17  1  0  0  0
 15 42  1  0  0  0
 16 18  1  0  0  0
 16 43  1  0  0  0
 16 44  1  0  0  0
 17 22  1  0  0  0
 17 45  1  0  0  0
 17 46  1  0  0  0
 18 23  2  0  0  0
 18 24  1  0  0  0
 19 22  1  0  0  0
 19 25  2  0  0  0
 19 26  1  0  0  0
 20 29  1  0  0  0
 20 47  1  0  0  0
 20 48  1  0  0  0
 21 27  1  0  0  0
 21 28  1  0  0  0
 21 49  1  0  0  0
 22 50  1  0  0  0
 22 51  1  0  0  0
 23 30  1  0  0  0
 23 52  1  0  0  0
 24 33  2  0  0  0
 24 53  1  0  0  0
 25 31  1  0  0  0
 25 54  1  0  0  0
 26 32  2  0  0  0
 26 55  1  0  0  0
 27 56  1  0  0  0
 27 57  1  0  0  0
 27 58  1  0  0  0
 28 59  1  0  0  0
 28 60  1  0  0  0
 28 61  1  0  0  0
 29 62  1  0  0  0
 29 63  1  0  0  0
 29 64  1  0  0  0
 30 34  2  0  0  0
 30 65  1  0  0  0
 31 35  2  0  0  0
 31 66  1  0  0  0
 32 35  1  0  0  0
 32 67  1  0  0  0
 33 34  1  0  0  0
 33 68  1  0  0  0
 34 69  1  0  0  0
 35 70  1  0  0  0
M  END
> <chembl_id>
CHEMBL117336

> <chembl_pref_name>
None

> <s_m_source_file>
sdf/inactives_sanitized.sdf

> <i_m_source_file_index>
15

> <i_lp_mmshare_version>
49012

> <i_m_ct_stereo_status>
1

> <i_f3d_flags>
0

> <s_epik_input>
W2NIXTFbY0hdW2NIXVtjSF1bY0hdYzFbQ0gyXVtDSDJdW05IXUMoPU8pQyg9TylbQ0BIXShbQ0gyXVtDSDNdKVtOSF1DKD1PKVtDQEBIXShbQ0gyXVtDSF0oW0NIM10pW0NIM10pW05IXUMoPU8pT1tDSDJdYzJbY0hdW2NIXVtjSF1bY0hdW2NIXTI=

> <s_epik_cmdline>
J2VwaWtfcHl0aG9uJywgJy1waHQnLCAnMC41JywgJy1waCcsICc3LjUnLCAnLW50JywgJy1tYScsICcyMDAnLCAnLWltYWUnLCAnPGluZmlsZS5tYWU+JywgJy1vbWFlJywgJzxvdXRmaWxlLm1hZT4n

> <r_lp_tautomer_probability>
1

> <r_epik_Ionization_Penalty>
  0.0000

> <r_epik_Ionization_Penalty_Charging>
  0.0000

> <r_epik_Ionization_Penalty_Neutral>
  0.0000

> <r_epik_State_Penalty>
 -0.0000

> <r_epik_Charging_Adjusted_Penalty>
0

> <i_epik_Tot_Q>
0

> <i_epik_Tot_abs_Q>
0

> <s_epik_Chemistry_Notes>
This compound has an ester and may undergo hydrolysis at high or low pH.

> <s_lp_Force_Field>
OPLS3e

> <r_lp_Energy>
36.046125

> <b_lp_Chiralities_Consistent>
1

> <s_lp_Variant>
sdf/inactives_sanitized.sdf:15-1

$$$$
sdf/inactives_sanitized.sdf:16
                    3D
 Schrodinger Suite 2020-1.
 49 51  0  0  1  0            999 V2000
   -4.3457    1.0086    1.3302 C   0  0  0  0  0  0
   -2.8603    0.7170    1.4833 C   0  0  0  0  0  0
   -2.3270    0.4678    0.0637 C   0  0  1  0  0  0
   -3.2439    1.3046   -0.7626 N   0  0  2  0  0  0
   -4.5984    1.2402   -0.1606 C   0  0  0  0  0  0
   -0.8488    0.8862   -0.0653 C   0  0  0  0  0  0
    0.0479   -0.1134   -0.1358 N   0  0  0  0  0  0
   -0.5276    2.0739    0.0067 O   0  0  0  0  0  0
   -3.1179    1.3032   -2.5336 S   0  0  0  0  0  0
   -4.1305    2.6797   -3.0716 C   0  0  0  0  0  0
   -1.7344    1.6187   -2.9077 O   0  0  0  0  0  0
   -3.7467    0.0696   -3.0203 O   0  0  0  0  0  0
    1.5111    0.0441   -0.1035 C   0  0  2  0  0  0
    2.0926   -0.6558   -1.3208 C   0  0  0  0  0  0
    2.0880   -0.5533    1.2044 C   0  0  0  0  0  0
    1.5939    0.1081    2.4822 C   0  0  0  0  0  0
    0.4396   -0.3741    3.1371 C   0  0  0  0  0  0
   -0.0679    0.3002    4.2396 C   0  0  0  0  0  0
    0.5417    1.4648    4.6886 C   0  0  0  0  0  0
    1.6552    1.9730    4.0312 C   0  0  0  0  0  0
    2.1765    1.3145    2.9252 C   0  0  0  0  0  0
    1.4361   -1.2230   -2.1969 O   0  0  0  0  0  0
   -5.4582    2.4682   -3.4524 C   0  0  0  0  0  0
   -6.2404    3.5462   -3.8584 C   0  0  0  0  0  0
   -5.6940    4.8282   -3.8798 C   0  0  0  0  0  0
   -3.5870    3.9662   -3.0897 C   0  0  0  0  0  0
   -4.3713    5.0422   -3.4964 C   0  0  0  0  0  0
   -6.4545    5.8740   -4.2750 F   0  0  0  0  0  0
   -4.6171    1.8934    1.9074 H   0  0  0  0  0  0
   -4.9562    0.1843    1.7015 H   0  0  0  0  0  0
   -2.7049   -0.1604    2.1132 H   0  0  0  0  0  0
   -2.3562    1.5466    1.9854 H   0  0  0  0  0  0
   -2.4313   -0.5878   -0.1980 H   0  0  0  0  0  0
   -5.2245    2.0858   -0.4458 H   0  0  0  0  0  0
   -5.1277    0.3900   -0.5938 H   0  0  0  0  0  0
   -0.2848   -1.0664   -0.1159 H   0  0  0  0  0  0
    1.7882    1.0991   -0.1571 H   0  0  0  0  0  0
    3.1810   -0.6202   -1.3741 H   0  0  0  0  0  0
    1.8549   -1.6181    1.2711 H   0  0  0  0  0  0
    3.1775   -0.4832    1.1966 H   0  0  0  0  0  0
   -0.0553   -1.2660    2.7816 H   0  0  0  0  0  0
   -0.9454   -0.0769    4.7439 H   0  0  0  0  0  0
    0.1394    1.9852    5.5453 H   0  0  0  0  0  0
    2.1117    2.8894    4.3757 H   0  0  0  0  0  0
    3.0283    1.7292    2.4063 H   0  0  0  0  0  0
   -5.8869    1.4768   -3.4336 H   0  0  0  0  0  0
   -7.2671    3.3892   -4.1551 H   0  0  0  0  0  0
   -2.5633    4.1342   -2.7879 H   0  0  0  0  0  0
   -3.9554    6.0389   -3.5133 H   0  0  0  0  0  0
  1  5  1  0  0  0
  1  2  1  0  0  0
  1 29  1  0  0  0
  1 30  1  0  0  0
  2  3  1  0  0  0
  2 31  1  0  0  0
  2 32  1  0  0  0
  3  4  1  0  0  0
  3  6  1  0  0  0
  3 33  1  0  0  0
  4  9  1  0  0  0
  4  5  1  0  0  0
  5 34  1  0  0  0
  5 35  1  0  0  0
  6  7  1  0  0  0
  6  8  2  0  0  0
  7 13  1  0  0  0
  7 36  1  0  0  0
  9 10  1  0  0  0
  9 11  2  0  0  0
  9 12  2  0  0  0
 10 23  2  0  0  0
 10 26  1  0  0  0
 13 14  1  0  0  0
 13 15  1  0  0  0
 13 37  1  0  0  0
 14 22  2  0  0  0
 14 38  1  0  0  0
 15 16  1  0  0  0
 15 39  1  0  0  0
 15 40  1  0  0  0
 16 17  2  0  0  0
 16 21  1  0  0  0
 17 18  1  0  0  0
 17 41  1  0  0  0
 18 19  2  0  0  0
 18 42  1  0  0  0
 19 20  1  0  0  0
 19 43  1  0  0  0
 20 21  2  0  0  0
 20 44  1  0  0  0
 21 45  1  0  0  0
 23 24  1  0  0  0
 23 46  1  0  0  0
 24 25  2  0  0  0
 24 47  1  0  0  0
 25 27  1  0  0  0
 25 28  1  0  0  0
 26 27  2  0  0  0
 26 48  1  0  0  0
 27 49  1  0  0  0
M  END
> <chembl_id>
CHEMBL213405

> <chembl_pref_name>
None

> <i_m_ct_stereo_status>
1

> <s_m_source_file>
sdf/inactives_sanitized.sdf

> <i_m_source_file_index>
16

> <i_lp_mmshare_version>
49012

> <i_f3d_flags>
0

> <s_epik_input>
W2NIXTFbY0hdYyhGKVtjSF1bY0hdYzFTKD1PKSg9TylOMltDSDJdW0NIMl1bQ0gyXVtDQEBIXTJDKD1PKVtOSF1bQ0BIXShbQ0hdPU8pW0NIMl1jM1tjSF1bY0hdW2NIXVtjSF1bY0hdMw==

> <s_epik_cmdline>
J2VwaWtfcHl0aG9uJywgJy1waHQnLCAnMC41JywgJy1waCcsICc3LjUnLCAnLW50JywgJy1tYScsICcyMDAnLCAnLWltYWUnLCAnPGluZmlsZS5tYWU+JywgJy1vbWFlJywgJzxvdXRmaWxlLm1hZT4n

> <r_lp_tautomer_probability>
1

> <r_epik_Ionization_Penalty>
  0.0030

> <r_epik_Ionization_Penalty_Charging>
  0.0000

> <r_epik_Ionization_Penalty_Neutral>
  0.0030

> <r_epik_State_Penalty>
 -0.0000

> <r_epik_Charging_Adjusted_Penalty>
0

> <i_epik_Tot_Q>
0

> <i_epik_Tot_abs_Q>
0

> <s_lp_Force_Field>
OPLS3e

> <r_lp_Energy>
30.358021

> <b_lp_Chiralities_Consistent>
1

> <s_lp_Variant>
sdf/inactives_sanitized.sdf:16-1

$$$$
sdf/inactives_sanitized.sdf:17
                    3D
 Schrodinger Suite 2020-1.
 50 52  0  0  1  0            999 V2000
   -4.6252   -2.4353    2.6267 C   0  0  0  0  0  0
   -4.9039   -3.0190    3.8521 C   0  0  0  0  0  0
   -3.8522   -3.5344    4.6002 C   0  0  0  0  0  0
   -3.3751   -2.3268    2.1263 N   0  0  0  0  0  0
   -2.3165   -2.8176    2.8415 C   0  0  0  0  0  0
   -2.5122   -3.4682    4.1097 C   0  0  0  0  0  0
   -1.3738   -3.9830    4.8219 C   0  0  0  0  0  0
   -0.1021   -3.7826    4.2798 C   0  0  0  0  0  0
    0.0842   -3.1452    3.0642 C   0  0  0  0  0  0
   -0.9882   -2.6660    2.3183 C   0  0  0  0  0  0
   -1.4801   -4.7218    6.1050 N   0  3  0  0  0  0
   -0.5694   -4.5978    6.9192 O   0  0  0  0  0  0
   -2.4349   -5.4694    6.2872 O   0  5  0  0  0  0
   -0.6770   -2.0472    1.1134 N   0  0  0  0  0  0
   -0.8840   -0.5873    1.0286 C   0  0  0  0  0  0
   -0.1732    0.0791   -0.1871 C   0  0  2  0  0  0
   -0.4977   -0.6513   -1.5076 C   0  0  0  0  0  0
   -0.3721   -2.1733   -1.3693 C   0  0  0  0  0  0
   -1.1331   -2.6895   -0.1310 C   0  0  0  0  0  0
    1.3633    0.2325    0.0331 C   0  0  0  0  0  0
    2.0547    1.2130   -0.6155 N   0  0  0  0  0  0
    1.9327   -0.5510    0.7988 O   0  0  0  0  0  0
    1.4473    2.2417   -1.4737 C   0  0  0  0  0  0
    1.0821    3.5228   -0.7069 C   0  0  0  0  0  0
    3.5086    1.3658   -0.4382 C   0  0  0  0  0  0
    4.3282    0.3880   -1.2949 C   0  0  0  0  0  0
   -5.4204   -2.0272    2.0204 H   0  0  0  0  0  0
   -5.9181   -3.0686    4.2205 H   0  0  0  0  0  0
   -4.0777   -3.9648    5.5621 H   0  0  0  0  0  0
    0.7712   -4.1491    4.8000 H   0  0  0  0  0  0
    1.0931   -3.0294    2.6922 H   0  0  0  0  0  0
   -1.9581   -0.4084    0.9642 H   0  0  0  0  0  0
   -0.5246   -0.1360    1.9559 H   0  0  0  0  0  0
   -0.5240    1.1094   -0.2263 H   0  0  0  0  0  0
   -1.5051   -0.3625   -1.8106 H   0  0  0  0  0  0
    0.0737   -0.2527   -2.3465 H   0  0  0  0  0  0
   -0.7745   -2.6490   -2.2642 H   0  0  0  0  0  0
    0.6728   -2.4835   -1.3214 H   0  0  0  0  0  0
   -0.9661   -3.7647   -0.0503 H   0  0  0  0  0  0
   -2.2071   -2.5449   -0.2560 H   0  0  0  0  0  0
    2.1454    2.4945   -2.2732 H   0  0  0  0  0  0
    0.5582    1.8663   -1.9776 H   0  0  0  0  0  0
    0.6299    4.2528   -1.3783 H   0  0  0  0  0  0
    1.9636    3.9899   -0.2667 H   0  0  0  0  0  0
    0.3649    3.3250    0.0900 H   0  0  0  0  0  0
    3.8094    2.3848   -0.6854 H   0  0  0  0  0  0
    3.7686    1.2300    0.6128 H   0  0  0  0  0  0
    5.3954    0.5454   -1.1378 H   0  0  0  0  0  0
    4.1300    0.5296   -2.3575 H   0  0  0  0  0  0
    4.1120   -0.6497   -1.0390 H   0  0  0  0  0  0
  1  2  2  0  0  0
  1  4  1  0  0  0
  1 27  1  0  0  0
  2  3  1  0  0  0
  2 28  1  0  0  0
  3  6  2  0  0  0
  3 29  1  0  0  0
  4  5  2  0  0  0
  5  6  1  0  0  0
  5 10  1  0  0  0
  6  7  1  0  0  0
  7  8  2  0  0  0
  7 11  1  0  0  0
  8  9  1  0  0  0
  8 30  1  0  0  0
  9 10  2  0  0  0
  9 31  1  0  0  0
 10 14  1  0  0  0
 11 12  2  0  0  0
 11 13  1  0  0  0
 14 15  1  0  0  0
 14 19  1  0  0  0
 15 16  1  0  0  0
 15 32  1  0  0  0
 15 33  1  0  0  0
 16 17  1  0  0  0
 16 20  1  0  0  0
 16 34  1  0  0  0
 17 18  1  0  0  0
 17 35  1  0  0  0
 17 36  1  0  0  0
 18 19  1  0  0  0
 18 37  1  0  0  0
 18 38  1  0  0  0
 19 39  1  0  0  0
 19 40  1  0  0  0
 20 21  1  0  0  0
 20 22  2  0  0  0
 21 23  1  0  0  0
 21 25  1  0  0  0
 23 24  1  0  0  0
 23 41  1  0  0  0
 23 42  1  0  0  0
 24 43  1  0  0  0
 24 44  1  0  0  0
 24 45  1  0  0  0
 25 26  1  0  0  0
 25 46  1  0  0  0
 25 47  1  0  0  0
 26 48  1  0  0  0
 26 49  1  0  0  0
 26 50  1  0  0  0
M  CHG  2  11   1  13  -1
M  END
> <chembl_id>
CHEMBL2312206

> <chembl_pref_name>
None

> <s_m_source_file>
sdf/inactives_sanitized.sdf

> <i_m_source_file_index>
17

> <i_lp_mmshare_version>
49012

> <i_m_ct_stereo_status>
1

> <i_f3d_flags>
0

> <s_epik_input>
bjFbY0hdW2NIXVtjSF1jKGMxMiljKFtOK10oPU8pW08tXSlbY0hdW2NIXWMyTjNbQ0gyXVtDQEhdKFtDSDJdW0NIMl1bQ0gyXTMpQyg9TylOKFtDSDJdW0NIM10pW0NIMl1bQ0gzXQ==

> <s_epik_cmdline>
J2VwaWtfcHl0aG9uJywgJy1waHQnLCAnMC41JywgJy1waCcsICc3LjUnLCAnLW50JywgJy1tYScsICcyMDAnLCAnLWltYWUnLCAnPGluZmlsZS5tYWU+JywgJy1vbWFlJywgJzxvdXRmaWxlLm1hZT4n

> <r_lp_tautomer_probability>
1

> <r_epik_Ionization_Penalty>
  0.0000

> <r_epik_Ionization_Penalty_Charging>
  0.0000

> <r_epik_Ionization_Penalty_Neutral>
  0.0000

> <r_epik_State_Penalty>
 -0.0000

> <r_epik_Charging_Adjusted_Penalty>
0

> <i_epik_Tot_Q>
0

> <i_epik_Tot_abs_Q>
2

> <s_lp_Force_Field>
OPLS3e

> <r_lp_Energy>
62.882156

> <b_lp_Chiralities_Consistent>
1

> <s_lp_Variant>
sdf/inactives_sanitized.sdf:17-1

$$$$
sdf/inactives_sanitized.sdf:18
                    3D
 Schrodinger Suite 2020-1.
 42 44  0  0  1  0            999 V2000
    0.2721    6.0555   -1.5186 C   0  0  0  0  0  0
   -0.8363    6.4462   -0.7797 C   0  0  0  0  0  0
   -1.5460    5.4794   -0.0751 C   0  0  0  0  0  0
    0.7087    4.7762   -1.5856 N   0  0  0  0  0  0
    0.0304    3.8081   -0.8976 C   0  0  0  0  0  0
   -1.1345    4.1158   -0.1213 C   0  0  0  0  0  0
   -1.8105    3.0633    0.5704 C   0  0  0  0  0  0
   -1.3049    1.7651    0.4958 C   0  0  0  0  0  0
   -0.1672    1.4589   -0.2460 C   0  0  0  0  0  0
    0.5022    2.4650   -0.9536 C   0  0  0  0  0  0
    1.6165    2.1527   -1.6988 O   0  0  0  0  0  0
   -3.0309    3.3011    1.3634 N   0  3  0  0  0  0
   -3.0531    2.8812    2.5161 O   0  0  0  0  0  0
   -3.9713    3.8745    0.8231 O   0  5  0  0  0  0
    0.3192    0.0113   -0.2823 C   0  0  0  0  0  0
    1.5466   -0.1896    0.5005 N   0  0  2  0  0  0
    2.1821   -1.4784    0.1860 C   0  0  0  0  0  0
    2.7794   -1.5100   -1.2168 C   0  0  0  0  0  0
    3.9339   -0.7728   -1.4957 C   0  0  0  0  0  0
    4.4562   -0.7603   -2.7862 C   0  0  0  0  0  0
    3.8171   -1.4770   -3.7959 C   0  0  0  0  0  0
    2.6587   -2.2036   -3.5276 C   0  0  0  0  0  0
    2.1367   -2.2174   -2.2368 C   0  0  0  0  0  0
    1.2461   -0.0752    1.9334 C   0  0  0  0  0  0
    2.4700   -0.1658    2.7515 C   0  0  0  0  0  0
    3.4296   -0.2369    3.3944 N   0  0  0  0  0  0
    0.8414    6.7843   -2.0767 H   0  0  0  0  0  0
   -1.1415    7.4821   -0.7518 H   0  0  0  0  0  0
   -2.4033    5.7762    0.5096 H   0  0  0  0  0  0
   -1.8151    0.9732    1.0263 H   0  0  0  0  0  0
   -0.4605   -0.6741    0.0556 H   0  0  0  0  0  0
    0.4900   -0.2303   -1.3314 H   0  0  0  0  0  0
    2.9978   -1.6843    0.8792 H   0  0  0  0  0  0
    1.4556   -2.2832    0.3145 H   0  0  0  0  0  0
    4.4228   -0.2080   -0.7147 H   0  0  0  0  0  0
    5.3494   -0.1935   -3.0043 H   0  0  0  0  0  0
    4.2207   -1.4650   -4.7975 H   0  0  0  0  0  0
    2.1658   -2.7497   -4.3184 H   0  0  0  0  0  0
    1.2327   -2.7726   -2.0326 H   0  0  0  0  0  0
    0.8014    0.8932    2.1628 H   0  0  0  0  0  0
    1.9943    2.9219   -2.1323 H   0  0  0  0  0  0
    0.5505   -0.8511    2.2577 H   0  0  0  0  0  0
  1  2  2  0  0  0
  1  4  1  0  0  0
  1 27  1  0  0  0
  2  3  1  0  0  0
  2 28  1  0  0  0
  3  6  2  0  0  0
  3 29  1  0  0  0
  4  5  2  0  0  0
  5  6  1  0  0  0
  5 10  1  0  0  0
  6  7  1  0  0  0
  7  8  2  0  0  0
  7 12  1  0  0  0
  8  9  1  0  0  0
  8 30  1  0  0  0
  9 10  2  0  0  0
  9 15  1  0  0  0
 10 11  1  0  0  0
 11 41  1  0  0  0
 12 13  2  0  0  0
 12 14  1  0  0  0
 15 16  1  0  0  0
 15 31  1  0  0  0
 15 32  1  0  0  0
 16 17  1  0  0  0
 16 24  1  0  0  0
 17 18  1  0  0  0
 17 33  1  0  0  0
 17 34  1  0  0  0
 18 19  2  0  0  0
 18 23  1  0  0  0
 19 20  1  0  0  0
 19 35  1  0  0  0
 20 21  2  0  0  0
 20 36  1  0  0  0
 21 22  1  0  0  0
 21 37  1  0  0  0
 22 23  2  0  0  0
 22 38  1  0  0  0
 23 39  1  0  0  0
 24 25  1  0  0  0
 24 40  1  0  0  0
 24 42  1  0  0  0
 25 26  3  0  0  0
M  CHG  2  12   1  14  -1
M  END
> <chembl_id>
CHEMBL2312214

> <chembl_pref_name>
None

> <s_m_source_file>
sdf/inactives_sanitized.sdf

> <i_m_source_file_index>
18

> <i_lp_mmshare_version>
49012

> <i_m_ct_stereo_status>
1

> <i_f3d_flags>
0

> <s_epik_input>
bjFbY0hdW2NIXVtjSF1jKGMxMiljKFtOK10oPU8pW08tXSlbY0hdYyhjMltPSF0pW0NIMl1OKFtDSDJdQyNOKVtDSDJdYzNbY0hdW2NIXVtjSF1bY0hdW2NIXTM=

> <s_epik_cmdline>
J2VwaWtfcHl0aG9uJywgJy1waHQnLCAnMC41JywgJy1waCcsICc3LjUnLCAnLW50JywgJy1tYScsICcyMDAnLCAnLWltYWUnLCAnPGluZmlsZS5tYWU+JywgJy1vbWFlJywgJzxvdXRmaWxlLm1hZT4n

> <r_lp_tautomer_probability>
1

> <r_epik_Ionization_Penalty>
  4.0116

> <r_epik_Ionization_Penalty_Charging>
  0.0000

> <r_epik_Ionization_Penalty_Neutral>
  4.0116

> <r_epik_State_Penalty>
 -0.0000

> <r_epik_Charging_Adjusted_Penalty>
0

> <i_epik_Tot_Q>
0

> <i_epik_Tot_abs_Q>
2

> <s_lp_Force_Field>
OPLS3e

> <r_lp_Energy>
50.193056

> <b_lp_Chiralities_Consistent>
1

> <s_lp_Variant>
sdf/inactives_sanitized.sdf:18-1

$$$$
sdf/inactives_sanitized.sdf:19
                    3D
 Schrodinger Suite 2020-1.
 22 23  0  0  1  0            999 V2000
   -2.1640    3.7068    0.0000 C   0  0  0  0  0  0
   -0.7815    3.7383    0.0000 C   0  0  0  0  0  0
   -0.0466    2.5590    0.0000 C   0  0  0  0  0  0
   -2.8309    2.4917    0.0000 C   0  0  0  0  0  0
   -2.1182    1.2561    0.0000 C   0  0  0  0  0  0
   -0.6756    1.2708    0.0000 C   0  0  0  0  0  0
    0.0401    0.0050   -0.0000 C   0  0  0  0  0  0
   -0.7177   -1.1747   -0.0000 C   0  0  0  0  0  0
   -2.0999   -1.1757   -0.0000 C   0  0  0  0  0  0
   -2.8142    0.0108    0.0000 C   0  0  0  0  0  0
    1.5310   -0.1403   -0.0000 N   0  3  0  0  0  0
    2.0079   -1.2729   -0.0000 O   0  0  0  0  0  0
    2.2609    0.8405   -0.0000 O   0  5  0  0  0  0
   -4.2099   -0.0807    0.0000 N   0  0  0  0  0  0
   -2.7244    4.6303    0.0000 H   0  0  0  0  0  0
   -0.2695    4.6896    0.0000 H   0  0  0  0  0  0
    1.0190    2.6852    0.0000 H   0  0  0  0  0  0
   -3.9109    2.4948    0.0000 H   0  0  0  0  0  0
   -0.2330   -2.1401   -0.0000 H   0  0  0  0  0  0
   -2.6186   -2.1242   -0.0000 H   0  0  0  0  0  0
   -4.6485   -0.9903    0.0000 H   0  0  0  0  0  0
   -4.7633    0.7638    0.0000 H   0  0  0  0  0  0
  1  2  2  0  0  0
  1  4  1  0  0  0
  1 15  1  0  0  0
  2  3  1  0  0  0
  2 16  1  0  0  0
  3  6  2  0  0  0
  3 17  1  0  0  0
  4  5  2  0  0  0
  4 18  1  0  0  0
  5  6  1  0  0  0
  5 10  1  0  0  0
  6  7  1  0  0  0
  7  8  2  0  0  0
  7 11  1  0  0  0
  8  9  1  0  0  0
  8 19  1  0  0  0
  9 10  2  0  0  0
  9 20  1  0  0  0
 10 14  1  0  0  0
 11 12  2  0  0  0
 11 13  1  0  0  0
 14 21  1  0  0  0
 14 22  1  0  0  0
M  CHG  2  11   1  13  -1
M  END
> <chembl_id>
CHEMBL2312201

> <chembl_pref_name>
None

> <s_m_source_file>
sdf/inactives_sanitized.sdf

> <i_m_source_file_index>
19

> <i_lp_mmshare_version>
49012

> <i_m_ct_stereo_status>
1

> <i_f3d_flags>
0

> <s_epik_input>
W2NIXTFbY0hdW2NIXVtjSF1jKGMxMiljKFtOK10oPU8pW08tXSlbY0hdW2NIXWMyW05IMl0=

> <s_epik_cmdline>
J2VwaWtfcHl0aG9uJywgJy1waHQnLCAnMC41JywgJy1waCcsICc3LjUnLCAnLW50JywgJy1tYScsICcyMDAnLCAnLWltYWUnLCAnPGluZmlsZS5tYWU+JywgJy1vbWFlJywgJzxvdXRmaWxlLm1hZT4n

> <r_lp_tautomer_probability>
1

> <r_epik_Ionization_Penalty>
  0.0000

> <r_epik_Ionization_Penalty_Charging>
  0.0000

> <r_epik_Ionization_Penalty_Neutral>
  0.0000

> <r_epik_State_Penalty>
 -0.0000

> <r_epik_Charging_Adjusted_Penalty>
0

> <i_epik_Tot_Q>
0

> <i_epik_Tot_abs_Q>
2

> <s_lp_Force_Field>
OPLS3e

> <r_lp_Energy>
28.741367

> <b_lp_Chiralities_Consistent>
1

> <s_lp_Variant>
sdf/inactives_sanitized.sdf:19-1

$$$$
sdf/inactives_sanitized.sdf:20
                    3D
 Schrodinger Suite 2020-1.
 33 35  0  0  1  0            999 V2000
   -2.2991    3.5795   -0.0051 C   0  0  0  0  0  0
   -0.9215    3.6946   -0.0066 C   0  0  0  0  0  0
   -0.1172    2.5619   -0.0051 C   0  0  0  0  0  0
   -2.8907    2.3264   -0.0017 C   0  0  0  0  0  0
   -2.1061    1.1336    0.0009 C   0  0  0  0  0  0
   -0.6667    1.2376   -0.0009 C   0  0  0  0  0  0
    0.1266    0.0197    0.0015 C   0  0  0  0  0  0
   -0.5556   -1.2039    0.0056 C   0  0  0  0  0  0
   -1.9340   -1.2909    0.0081 C   0  0  0  0  0  0
   -2.7309   -0.1526    0.0077 C   0  0  0  0  0  0
    1.6238   -0.0331   -0.0007 N   0  3  0  0  0  0
    2.1700   -1.1340   -0.0044 O   0  0  0  0  0  0
    2.2916    0.9909    0.0020 O   0  5  0  0  0  0
   -4.1119   -0.2944    0.0028 N   0  0  0  0  0  0
   -4.7552   -0.8028   -1.2173 C   0  0  0  0  0  0
   -6.2864   -0.6119   -1.1910 C   0  0  0  0  0  0
   -6.8308   -1.2165   -0.0252 O   0  0  0  0  0  0
   -6.2932   -0.6608    1.1678 C   0  0  0  0  0  0
   -4.7626   -0.8562    1.1951 C   0  0  0  0  0  0
   -2.9142    4.4673   -0.0060 H   0  0  0  0  0  0
   -0.4679    4.6749   -0.0090 H   0  0  0  0  0  0
    0.9386    2.7536   -0.0069 H   0  0  0  0  0  0
   -3.9692    2.2664    0.0002 H   0  0  0  0  0  0
   -0.0120   -2.1372    0.0067 H   0  0  0  0  0  0
   -2.3898   -2.2710    0.0094 H   0  0  0  0  0  0
   -4.3523   -0.2663   -2.0776 H   0  0  0  0  0  0
   -4.5031   -1.8549   -1.3599 H   0  0  0  0  0  0
   -6.5508    0.4464   -1.2329 H   0  0  0  0  0  0
   -6.7345   -1.0795   -2.0678 H   0  0  0  0  0  0
   -6.5557    0.3956    1.2508 H   0  0  0  0  0  0
   -6.7476   -1.1624    2.0224 H   0  0  0  0  0  0
   -4.5133   -1.9140    1.2928 H   0  0  0  0  0  0
   -4.3640   -0.3585    2.0802 H   0  0  0  0  0  0
  1  2  2  0  0  0
  1  4  1  0  0  0
  1 20  1  0  0  0
  2  3  1  0  0  0
  2 21  1  0  0  0
  3  6  2  0  0  0
  3 22  1  0  0  0
  4  5  2  0  0  0
  4 23  1  0  0  0
  5  6  1  0  0  0
  5 10  1  0  0  0
  6  7  1  0  0  0
  7  8  2  0  0  0
  7 11  1  0  0  0
  8  9  1  0  0  0
  8 24  1  0  0  0
  9 10  2  0  0  0
  9 25  1  0  0  0
 10 14  1  0  0  0
 11 12  2  0  0  0
 11 13  1  0  0  0
 14 15  1  0  0  0
 14 19  1  0  0  0
 15 16  1  0  0  0
 15 26  1  0  0  0
 15 27  1  0  0  0
 16 17  1  0  0  0
 16 28  1  0  0  0
 16 29  1  0  0  0
 17 18  1  0  0  0
 18 19  1  0  0  0
 18 30  1  0  0  0
 18 31  1  0  0  0
 19 32  1  0  0  0
 19 33  1  0  0  0
M  CHG  2  11   1  13  -1
M  END
> <chembl_id>
CHEMBL2312202

> <chembl_pref_name>
None

> <s_m_source_file>
sdf/inactives_sanitized.sdf

> <i_m_source_file_index>
20

> <i_lp_mmshare_version>
49012

> <i_m_ct_stereo_status>
1

> <i_f3d_flags>
0

> <s_epik_input>
W2NIXTFbY0hdW2NIXVtjSF1jKGMxMiljKFtOK10oPU8pW08tXSlbY0hdW2NIXWMyTjNbQ0gyXVtDSDJdT1tDSDJdW0NIMl0z

> <s_epik_cmdline>
J2VwaWtfcHl0aG9uJywgJy1waHQnLCAnMC41JywgJy1waCcsICc3LjUnLCAnLW50JywgJy1tYScsICcyMDAnLCAnLWltYWUnLCAnPGluZmlsZS5tYWU+JywgJy1vbWFlJywgJzxvdXRmaWxlLm1hZT4n

> <r_lp_tautomer_probability>
1

> <r_epik_Ionization_Penalty>
  0.0000

> <r_epik_Ionization_Penalty_Charging>
  0.0000

> <r_epik_Ionization_Penalty_Neutral>
  0.0000

> <r_epik_State_Penalty>
 -0.0000

> <r_epik_Charging_Adjusted_Penalty>
0

> <i_epik_Tot_Q>
0

> <i_epik_Tot_abs_Q>
2

> <s_lp_Force_Field>
OPLS3e

> <r_lp_Energy>
49.588946

> <b_lp_Chiralities_Consistent>
1

> <s_lp_Variant>
sdf/inactives_sanitized.sdf:20-1

$$$$
sdf/inactives_sanitized.sdf:21
                    3D
 Schrodinger Suite 2020-1.
 34 36  0  0  1  0            999 V2000
   -0.5501    3.5755   -0.0000 C   0  0  0  0  0  0
   -1.9264    3.7156   -0.0000 C   0  0  0  0  0  0
   -2.7153    2.5716    0.0000 C   0  0  0  0  0  0
    0.0671    2.3759   -0.0000 N   0  0  0  0  0  0
   -0.6825    1.2292   -0.0000 C   0  0  0  0  0  0
   -2.1241    1.2654    0.0000 C   0  0  0  0  0  0
   -2.8608    0.0169   -0.0000 C   0  0  0  0  0  0
   -2.1219   -1.1730   -0.0000 C   0  0  0  0  0  0
   -0.7391   -1.1964   -0.0000 C   0  0  0  0  0  0
    0.0107   -0.0220   -0.0000 C   0  0  0  0  0  0
   -4.3530   -0.0977    0.0000 N   0  3  0  0  0  0
   -4.8525   -1.2203    0.0000 O   0  0  0  0  0  0
   -5.0598    0.9001   -0.0000 O   0  5  0  0  0  0
    1.4219   -0.0672    0.0000 N   0  0  0  0  0  0
    2.1815   -1.3111   -0.0000 C   0  0  0  0  0  0
    3.6705   -1.0122    0.0000 C   0  0  0  0  0  0
    4.3501   -0.8568    1.2114 C   0  0  0  0  0  0
    5.7115   -0.5639    1.2108 C   0  0  0  0  0  0
    6.3862   -0.4209    0.0000 C   0  0  0  0  0  0
    5.7115   -0.5639   -1.2109 C   0  0  0  0  0  0
    4.3500   -0.8568   -1.2114 C   0  0  0  0  0  0
    0.0911    4.4447   -0.0000 H   0  0  0  0  0  0
   -2.3787    4.6966   -0.0000 H   0  0  0  0  0  0
   -3.7772    2.7319    0.0000 H   0  0  0  0  0  0
   -2.6239   -2.1297   -0.0000 H   0  0  0  0  0  0
   -0.2581   -2.1632   -0.0000 H   0  0  0  0  0  0
    1.9357    0.8027    0.0000 H   0  0  0  0  0  0
    1.9221   -1.9070    0.8765 H   0  0  0  0  0  0
    1.9221   -1.9070   -0.8766 H   0  0  0  0  0  0
    3.8257   -0.9623    2.1505 H   0  0  0  0  0  0
    6.2415   -0.4465    2.1446 H   0  0  0  0  0  0
    7.4422   -0.1940   -0.0000 H   0  0  0  0  0  0
    6.2415   -0.4465   -2.1446 H   0  0  0  0  0  0
    3.8257   -0.9623   -2.1505 H   0  0  0  0  0  0
  1  2  2  0  0  0
  1  4  1  0  0  0
  1 22  1  0  0  0
  2  3  1  0  0  0
  2 23  1  0  0  0
  3  6  2  0  0  0
  3 24  1  0  0  0
  4  5  2  0  0  0
  5  6  1  0  0  0
  5 10  1  0  0  0
  6  7  1  0  0  0
  7  8  2  0  0  0
  7 11  1  0  0  0
  8  9  1  0  0  0
  8 25  1  0  0  0
  9 10  2  0  0  0
  9 26  1  0  0  0
 10 14  1  0  0  0
 11 12  2  0  0  0
 11 13  1  0  0  0
 14 15  1  0  0  0
 14 27  1  0  0  0
 15 16  1  0  0  0
 15 28  1  0  0  0
 15 29  1  0  0  0
 16 17  2  0  0  0
 16 21  1  0  0  0
 17 18  1  0  0  0
 17 30  1  0  0  0
 18 19  2  0  0  0
 18 31  1  0  0  0
 19 20  1  0  0  0
 19 32  1  0  0  0
 20 21  2  0  0  0
 20 33  1  0  0  0
 21 34  1  0  0  0
M  CHG  2  11   1  13  -1
M  END
> <chembl_id>
CHEMBL2312207

> <chembl_pref_name>
None

> <s_m_source_file>
sdf/inactives_sanitized.sdf

> <i_m_source_file_index>
21

> <i_lp_mmshare_version>
49012

> <i_m_ct_stereo_status>
1

> <i_f3d_flags>
0

> <s_epik_input>
bjFbY0hdW2NIXVtjSF1jKGMxMiljKFtOK10oPU8pW08tXSlbY0hdW2NIXWMyW05IXVtDSDJdYzNbY0hdW2NIXVtjSF1bY0hdW2NIXTM=

> <s_epik_cmdline>
J2VwaWtfcHl0aG9uJywgJy1waHQnLCAnMC41JywgJy1waCcsICc3LjUnLCAnLW50JywgJy1tYScsICcyMDAnLCAnLWltYWUnLCAnPGluZmlsZS5tYWU+JywgJy1vbWFlJywgJzxvdXRmaWxlLm1hZT4n

> <r_lp_tautomer_probability>
1

> <r_epik_Ionization_Penalty>
  0.0000

> <r_epik_Ionization_Penalty_Charging>
  0.0000

> <r_epik_Ionization_Penalty_Neutral>
  0.0000

> <r_epik_State_Penalty>
 -0.0000

> <r_epik_Charging_Adjusted_Penalty>
0

> <i_epik_Tot_Q>
0

> <i_epik_Tot_abs_Q>
2

> <s_lp_Force_Field>
OPLS3e

> <r_lp_Energy>
48.429504

> <b_lp_Chiralities_Consistent>
1

> <s_lp_Variant>
sdf/inactives_sanitized.sdf:21-1

$$$$
sdf/inactives_sanitized.sdf:22
                    3D
 Schrodinger Suite 2020-1.
 32 33  0  0  1  0            999 V2000
   -2.0014    1.4922   -0.0416 C   0  0  0  0  0  0
   -0.5370    1.3704    0.0898 C   0  0  0  0  0  0
   -3.1501    1.5891   -0.1448 N   0  0  0  0  0  0
   -0.0842    0.0028   -0.1788 N   0  0  1  0  0  0
   -0.4520   -0.4261   -1.5303 C   0  0  0  0  0  0
    1.3648   -0.0707    0.0363 C   0  0  0  0  0  0
    1.8944   -4.4899    2.2242 N   0  0  0  0  0  0
    2.3578   -5.7615    2.2138 C   0  0  0  0  0  0
    3.0891   -6.2994    1.1633 C   0  0  0  0  0  0
    3.3709   -5.4956    0.0636 C   0  0  0  0  0  0
    2.9160   -4.1454    0.0302 C   0  0  0  0  0  0
    3.1667   -3.2553   -1.0593 C   0  0  0  0  0  0
    2.6439   -1.9625   -1.0161 C   0  0  0  0  0  0
    1.8956   -1.5049    0.0655 C   0  0  0  0  0  0
    1.6531   -2.3474    1.1574 C   0  0  0  0  0  0
    2.1559   -3.6809    1.1530 C   0  0  0  0  0  0
    3.9643   -3.6566   -2.2332 N   0  3  0  0  0  0
    3.4729   -3.4809   -3.3435 O   0  0  0  0  0  0
    5.0864   -4.1141   -2.0427 O   0  5  0  0  0  0
    0.9260   -1.8849    2.2303 O   0  0  0  0  0  0
   -0.0673    2.0852   -0.5881 H   0  0  0  0  0  0
   -0.1320   -1.4512   -1.7181 H   0  0  0  0  0  0
    0.0010    0.2165   -2.2868 H   0  0  0  0  0  0
   -1.5327   -0.4040   -1.6706 H   0  0  0  0  0  0
    1.6094    0.3862    0.9968 H   0  0  0  0  0  0
    1.8882    0.5224   -0.7163 H   0  0  0  0  0  0
    2.1249   -6.3618    3.0811 H   0  0  0  0  0  0
    3.4317   -7.3232    1.1989 H   0  0  0  0  0  0
    3.9302   -5.9086   -0.7620 H   0  0  0  0  0  0
    2.8305   -1.2949   -1.8459 H   0  0  0  0  0  0
    0.8132   -2.5529    2.9111 H   0  0  0  0  0  0
   -0.2861    1.6583    1.1118 H   0  0  0  0  0  0
  1  2  1  0  0  0
  1  3  3  0  0  0
  2  4  1  0  0  0
  2 21  1  0  0  0
  2 32  1  0  0  0
  4  5  1  0  0  0
  4  6  1  0  0  0
  5 22  1  0  0  0
  5 23  1  0  0  0
  5 24  1  0  0  0
  6 14  1  0  0  0
  6 25  1  0  0  0
  6 26  1  0  0  0
  7  8  2  0  0  0
  7 16  1  0  0  0
  8  9  1  0  0  0
  8 27  1  0  0  0
  9 10  2  0  0  0
  9 28  1  0  0  0
 10 11  1  0  0  0
 10 29  1  0  0  0
 11 12  2  0  0  0
 11 16  1  0  0  0
 12 13  1  0  0  0
 12 17  1  0  0  0
 13 14  2  0  0  0
 13 30  1  0  0  0
 14 15  1  0  0  0
 15 16  2  0  0  0
 15 20  1  0  0  0
 17 18  2  0  0  0
 17 19  1  0  0  0
 20 31  1  0  0  0
M  CHG  2  17   1  19  -1
M  END
> <chembl_id>
CHEMBL2312215

> <chembl_pref_name>
None

> <s_m_source_file>
sdf/inactives_sanitized.sdf

> <i_m_source_file_index>
22

> <i_lp_mmshare_version>
49012

> <i_m_ct_stereo_status>
1

> <i_f3d_flags>
0

> <s_epik_input>
TiNDW0NIMl1OKFtDSDNdKVtDSDJdYyhbY0hdYzFbTitdKD1PKVtPLV0pYyhbT0hdKWMoYzEyKW5bY0hdW2NIXVtjSF0y

> <s_epik_cmdline>
J2VwaWtfcHl0aG9uJywgJy1waHQnLCAnMC41JywgJy1waCcsICc3LjUnLCAnLW50JywgJy1tYScsICcyMDAnLCAnLWltYWUnLCAnPGluZmlsZS5tYWU+JywgJy1vbWFlJywgJzxvdXRmaWxlLm1hZT4n

> <r_lp_tautomer_probability>
1

> <r_epik_Ionization_Penalty>
  4.0189

> <r_epik_Ionization_Penalty_Charging>
  0.0000

> <r_epik_Ionization_Penalty_Neutral>
  4.0189

> <r_epik_State_Penalty>
 -0.0000

> <r_epik_Charging_Adjusted_Penalty>
0

> <i_epik_Tot_Q>
0

> <i_epik_Tot_abs_Q>
2

> <s_lp_Force_Field>
OPLS3e

> <r_lp_Energy>
34.638851

> <b_lp_Chiralities_Consistent>
1

> <s_lp_Variant>
sdf/inactives_sanitized.sdf:22-1

$$$$
sdf/inactives_sanitized.sdf:23
                    3D
 Schrodinger Suite 2020-1.
 38 40  0  0  1  0            999 V2000
   -1.2453    5.9816   -1.9216 C   0  0  0  0  0  0
   -2.1600    6.2368   -0.9103 C   0  0  0  0  0  0
   -2.3737    5.2620    0.0574 C   0  0  0  0  0  0
   -0.5410    4.8307   -2.0134 N   0  0  0  0  0  0
   -0.7279    3.8502   -1.0725 C   0  0  0  0  0  0
   -1.6651    4.0266   -0.0008 C   0  0  0  0  0  0
   -1.8383    2.9831    0.9581 C   0  0  0  0  0  0
   -1.0766    1.8220    0.8476 C   0  0  0  0  0  0
   -0.1574    1.6349   -0.1803 C   0  0  0  0  0  0
    0.0254    2.6330   -1.1518 C   0  0  0  0  0  0
    0.8733    2.4468   -2.0896 O   0  5  0  0  0  0
   -2.8040    3.0889    2.0671 N   0  3  0  0  0  0
   -2.3881    2.8982    3.2055 O   0  0  0  0  0  0
   -3.9757    3.3275    1.7936 O   0  5  0  0  0  0
    0.6140    0.3168   -0.2211 C   0  0  0  0  0  0
    2.0918    0.4834    0.1651 N   0  3  0  0  0  0
    2.8993   -0.8234    0.2239 C   0  0  0  0  0  0
    3.0631   -1.5141   -1.1211 C   0  0  0  0  0  0
    2.2295   -2.5821   -1.4642 C   0  0  0  0  0  0
    2.3916   -3.2237   -2.6894 C   0  0  0  0  0  0
    3.3903   -2.7997   -3.5635 C   0  0  0  0  0  0
    4.2296   -1.7407   -3.2234 C   0  0  0  0  0  0
    4.0677   -1.0979   -1.9987 C   0  0  0  0  0  0
   -1.0579    6.7187   -2.6885 H   0  0  0  0  0  0
   -2.6945    7.1748   -0.8748 H   0  0  0  0  0  0
   -3.0765    5.4559    0.8533 H   0  0  0  0  0  0
   -1.2144    1.0398    1.5813 H   0  0  0  0  0  0
    0.2214   -0.4240    0.4778 H   0  0  0  0  0  0
    0.6169   -0.1193   -1.2211 H   0  0  0  0  0  0
    2.5256    1.1077   -0.5008 H   0  0  0  0  0  0
    3.8609   -0.5156    0.6369 H   0  0  0  0  0  0
    2.3814   -1.4462    0.9552 H   0  0  0  0  0  0
    1.4551   -2.9129   -0.7872 H   0  0  0  0  0  0
    1.7470   -4.0470   -2.9604 H   0  0  0  0  0  0
    3.5161   -3.2980   -4.5135 H   0  0  0  0  0  0
    5.0031   -1.4204   -3.9059 H   0  0  0  0  0  0
    4.7203   -0.2778   -1.7360 H   0  0  0  0  0  0
    2.1327    0.9280    1.0709 H   0  0  0  0  0  0
  1  2  2  0  0  0
  1  4  1  0  0  0
  1 24  1  0  0  0
  2  3  1  0  0  0
  2 25  1  0  0  0
  3  6  2  0  0  0
  3 26  1  0  0  0
  4  5  2  0  0  0
  5  6  1  0  0  0
  5 10  1  0  0  0
  6  7  1  0  0  0
  7  8  2  0  0  0
  7 12  1  0  0  0
  8  9  1  0  0  0
  8 27  1  0  0  0
  9 10  2  0  0  0
  9 15  1  0  0  0
 10 11  1  0  0  0
 12 13  2  0  0  0
 12 14  1  0  0  0
 15 16  1  0  0  0
 15 28  1  0  0  0
 15 29  1  0  0  0
 16 17  1  0  0  0
 16 30  1  0  0  0
 16 38  1  0  0  0
 17 18  1  0  0  0
 17 31  1  0  0  0
 17 32  1  0  0  0
 18 19  2  0  0  0
 18 23  1  0  0  0
 19 20  1  0  0  0
 19 33  1  0  0  0
 20 21  2  0  0  0
 20 34  1  0  0  0
 21 22  1  0  0  0
 21 35  1  0  0  0
 22 23  2  0  0  0
 22 36  1  0  0  0
 23 37  1  0  0  0
M  CHG  4  11  -1  12   1  14  -1  16   1
M  END
> <chembl_id>
CHEMBL2312212

> <chembl_pref_name>
None

> <s_m_source_file>
sdf/inactives_sanitized.sdf

> <i_m_source_file_index>
23

> <i_lp_mmshare_version>
49012

> <i_m_ct_stereo_status>
1

> <i_f3d_flags>
0

> <s_epik_input>
bjFbY0hdW2NIXVtjSF1jKGMxMiljKFtOK10oPU8pW08tXSlbY0hdYyhjMltPSF0pW0NIMl1bTkhdW0NIMl1jM1tjSF1bY0hdW2NIXVtjSF1bY0hdMw==

> <s_epik_cmdline>
J2VwaWtfcHl0aG9uJywgJy1waHQnLCAnMC41JywgJy1waCcsICc3LjUnLCAnLW50JywgJy1tYScsICcyMDAnLCAnLWltYWUnLCAnPGluZmlsZS5tYWU+JywgJy1vbWFlJywgJzxvdXRmaWxlLm1hZT4n

> <r_epik_Ionization_Penalty>
  0.2102

> <r_epik_Ionization_Penalty_Charging>
  0.2102

> <r_epik_Ionization_Penalty_Neutral>
  0.0000

> <r_epik_State_Penalty>
  0.2002

> <r_epik_Charging_Adjusted_Penalty>
0.410445393684247

> <i_epik_Tot_Q>
0

> <i_epik_Tot_abs_Q>
4

> <s_lp_Force_Field>
OPLS3e

> <r_lp_Energy>
36.610874

> <b_lp_Chiralities_Consistent>
1

> <s_lp_Variant>
sdf/inactives_sanitized.sdf:23-1

$$$$
sdf/inactives_sanitized.sdf:24
                    3D
 Schrodinger Suite 2020-1.
 49 52  0  0  1  0            999 V2000
   -1.2141    6.0909    1.4065 C   0  0  0  0  0  0
   -1.9792    6.2294    0.2578 C   0  0  0  0  0  0
   -2.1844    5.1137   -0.5455 C   0  0  0  0  0  0
   -0.6482    4.9228    1.7859 N   0  0  0  0  0  0
   -0.8297    3.8046    1.0124 C   0  0  0  0  0  0
   -1.6189    3.8561   -0.1845 C   0  0  0  0  0  0
   -1.7914    2.6711   -0.9624 C   0  0  0  0  0  0
   -1.1701    1.4924   -0.5560 C   0  0  0  0  0  0
   -0.3920    1.4253    0.5957 C   0  0  0  0  0  0
   -0.2179    2.5662    1.3959 C   0  0  0  0  0  0
    0.4969    2.4878    2.4522 O   0  5  0  0  0  0
   -2.6090    2.6482   -2.1893 N   0  3  0  0  0  0
   -2.0921    2.2058   -3.2102 O   0  0  0  0  0  0
   -3.7696    3.0392   -2.1200 O   0  5  0  0  0  0
    0.2449    0.0815    0.9552 C   0  0  0  0  0  0
    1.7820    0.0564    0.8022 N   0  3  0  0  0  0
    2.2116    0.2343   -0.6735 C   0  0  0  0  0  0
    3.7567    0.1813   -0.7503 C   0  0  0  0  0  0
    4.3081   -1.0687   -0.2104 N   0  0  1  0  0  0
    3.9020   -1.2270    1.1951 C   0  0  0  0  0  0
    2.3652   -1.2590    1.3656 C   0  0  0  0  0  0
    4.0566   -2.2326   -1.0715 C   0  0  0  0  0  0
    4.8224   -3.4764   -0.6367 C   0  0  0  0  0  0
    6.2190   -3.4709   -0.5305 C   0  0  0  0  0  0
    6.8852   -4.6287   -0.1242 C   0  0  0  0  0  0
    6.1284   -5.7658    0.1639 C   0  0  0  0  0  0
    4.7746   -5.7956    0.0657 N   0  0  0  0  0  0
    4.1435   -4.6611   -0.3316 C   0  0  0  0  0  0
   -1.0378    6.9388    2.0520 H   0  0  0  0  0  0
   -2.4058    7.1855   -0.0078 H   0  0  0  0  0  0
   -2.7704    5.2151   -1.4462 H   0  0  0  0  0  0
   -1.3025    0.6021   -1.1549 H   0  0  0  0  0  0
    0.0504   -0.1656    2.0003 H   0  0  0  0  0  0
   -0.1268   -0.7405    0.3399 H   0  0  0  0  0  0
    1.7180   -0.5403   -1.2624 H   0  0  0  0  0  0
    1.8400    1.2109   -0.9856 H   0  0  0  0  0  0
    4.0780    0.3024   -1.7857 H   0  0  0  0  0  0
    4.1867    1.0244   -0.2070 H   0  0  0  0  0  0
    4.3371   -2.1371    1.6089 H   0  0  0  0  0  0
    4.3246   -0.4090    1.7810 H   0  0  0  0  0  0
    2.0857   -1.2884    2.4196 H   0  0  0  0  0  0
    1.8867   -2.0895    0.8440 H   0  0  0  0  0  0
    2.9909   -2.4509   -1.1479 H   0  0  0  0  0  0
    4.3994   -1.9902   -2.0787 H   0  0  0  0  0  0
    6.7822   -2.5773   -0.7577 H   0  0  0  0  0  0
    7.9616   -4.6432   -0.0345 H   0  0  0  0  0  0
    6.6085   -6.6799    0.4813 H   0  0  0  0  0  0
    3.0667   -4.7168   -0.3981 H   0  0  0  0  0  0
    2.1695    0.8224    1.3359 H   0  0  0  0  0  0
  1  2  2  0  0  0
  1  4  1  0  0  0
  1 29  1  0  0  0
  2  3  1  0  0  0
  2 30  1  0  0  0
  3  6  2  0  0  0
  3 31  1  0  0  0
  4  5  2  0  0  0
  5  6  1  0  0  0
  5 10  1  0  0  0
  6  7  1  0  0  0
  7  8  2  0  0  0
  7 12  1  0  0  0
  8  9  1  0  0  0
  8 32  1  0  0  0
  9 10  2  0  0  0
  9 15  1  0  0  0
 10 11  1  0  0  0
 12 13  2  0  0  0
 12 14  1  0  0  0
 15 16  1  0  0  0
 15 33  1  0  0  0
 15 34  1  0  0  0
 16 17  1  0  0  0
 16 21  1  0  0  0
 16 49  1  0  0  0
 17 18  1  0  0  0
 17 35  1  0  0  0
 17 36  1  0  0  0
 18 19  1  0  0  0
 18 37  1  0  0  0
 18 38  1  0  0  0
 19 20  1  0  0  0
 19 22  1  0  0  0
 20 21  1  0  0  0
 20 39  1  0  0  0
 20 40  1  0  0  0
 21 41  1  0  0  0
 21 42  1  0  0  0
 22 23  1  0  0  0
 22 43  1  0  0  0
 22 44  1  0  0  0
 23 24  2  0  0  0
 23 28  1  0  0  0
 24 25  1  0  0  0
 24 45  1  0  0  0
 25 26  2  0  0  0
 25 46  1  0  0  0
 26 27  1  0  0  0
 26 47  1  0  0  0
 27 28  2  0  0  0
 28 48  1  0  0  0
M  CHG  4  11  -1  12   1  14  -1  16   1
M  END
> <chembl_id>
CHEMBL2312210

> <chembl_pref_name>
None

> <s_m_source_file>
sdf/inactives_sanitized.sdf

> <i_m_source_file_index>
24

> <i_lp_mmshare_version>
49012

> <i_m_ct_stereo_status>
1

> <i_f3d_flags>
0

> <s_epik_input>
bjFbY0hdW2NIXVtjSF1jKGMxMiljKFtOK10oPU8pW08tXSlbY0hdYyhjMltPSF0pW0NIMl1OM1tDSDJdW0NIMl1OKFtDSDJdW0NIMl0zKVtDSDJdYzRbY0hdW2NIXVtjSF1uW2NIXTQ=

> <s_epik_cmdline>
J2VwaWtfcHl0aG9uJywgJy1waHQnLCAnMC41JywgJy1waCcsICc3LjUnLCAnLW50JywgJy1tYScsICcyMDAnLCAnLWltYWUnLCAnPGluZmlsZS5tYWU+JywgJy1vbWFlJywgJzxvdXRmaWxlLm1hZT4n

> <r_epik_Ionization_Penalty>
  0.0870

> <r_epik_Ionization_Penalty_Charging>
  0.0726

> <r_epik_Ionization_Penalty_Neutral>
  0.0144

> <r_epik_State_Penalty>
  0.2572

> <r_epik_Charging_Adjusted_Penalty>
0.329789333894762

> <i_epik_Tot_Q>
0

> <i_epik_Tot_abs_Q>
4

> <s_lp_Force_Field>
OPLS3e

> <r_lp_Energy>
59.012652

> <b_lp_Chiralities_Consistent>
1

> <s_lp_Variant>
sdf/inactives_sanitized.sdf:24-1

$$$$
sdf/inactives_sanitized.sdf:24
                    3D
 Schrodinger Suite 2020-1.
 49 52  0  0  1  0            999 V2000
   -2.6479    3.9506   -2.8878 C   0  0  0  0  0  0
   -2.4292    5.1878   -2.3000 C   0  0  0  0  0  0
   -1.8038    5.2353   -1.0595 C   0  0  0  0  0  0
   -2.2759    2.7815   -2.3192 N   0  0  0  0  0  0
   -1.6535    2.7952   -1.0967 C   0  0  0  0  0  0
   -1.4028    4.0306   -0.4120 C   0  0  0  0  0  0
   -0.7583    4.0079    0.8614 C   0  0  0  0  0  0
   -0.3628    2.7871    1.4029 C   0  0  0  0  0  0
   -0.5884    1.5779    0.7510 C   0  0  0  0  0  0
   -1.2385    1.5617   -0.4945 C   0  0  0  0  0  0
   -1.4433    0.4475   -1.0858 O   0  5  0  0  0  0
   -0.4945    5.2379    1.6302 N   0  3  0  0  0  0
    0.6545    5.4372    2.0115 O   0  0  0  0  0  0
   -1.4394    5.9806    1.8769 O   0  5  0  0  0  0
   -0.1088    0.2975    1.4451 C   0  0  0  0  0  0
    1.3534    0.1518    1.4179 N   0  0  1  0  0  0
    1.8437   -0.9354    2.2748 C   0  0  0  0  0  0
    1.5285   -2.3372    1.6979 C   0  0  0  0  0  0
    2.1598   -2.4493    0.2894 N   0  3  0  0  0  0
    1.6319   -1.3046   -0.6057 C   0  0  0  0  0  0
    1.9540    0.0443    0.0793 C   0  0  0  0  0  0
    1.8681   -3.8208   -0.3601 C   0  0  0  0  0  0
    2.5240   -4.9941    0.3498 C   0  0  0  0  0  0
    3.8805   -5.2795    0.1591 C   0  0  0  0  0  0
    4.4548   -6.3701    0.8154 C   0  0  0  0  0  0
    3.6459   -7.1499    1.6438 C   0  0  0  0  0  0
    2.3264   -6.8961    1.8374 N   0  0  0  0  0  0
    1.7842   -5.8327    1.1908 C   0  0  0  0  0  0
   -3.1328    3.8801   -3.8501 H   0  0  0  0  0  0
   -2.7375    6.0960   -2.7968 H   0  0  0  0  0  0
   -1.6203    6.1939   -0.5991 H   0  0  0  0  0  0
    0.1313    2.7785    2.3646 H   0  0  0  0  0  0
   -0.4351    0.3538    2.4849 H   0  0  0  0  0  0
   -0.5980   -0.5847    1.0327 H   0  0  0  0  0  0
    2.9199   -0.8211    2.4149 H   0  0  0  0  0  0
    1.4045   -0.8395    3.2687 H   0  0  0  0  0  0
    1.9864   -3.1187    2.3047 H   0  0  0  0  0  0
    0.4600   -2.5382    1.6028 H   0  0  0  0  0  0
    2.1503   -1.3953   -1.5609 H   0  0  0  0  0  0
    0.5647   -1.4699   -0.7614 H   0  0  0  0  0  0
    1.6139    0.8670   -0.5504 H   0  0  0  0  0  0
    3.0343    0.1716    0.1643 H   0  0  0  0  0  0
    0.7803   -3.9134   -0.3930 H   0  0  0  0  0  0
    2.2374   -3.7426   -1.3844 H   0  0  0  0  0  0
    4.4857   -4.6620   -0.4886 H   0  0  0  0  0  0
    5.5008   -6.6057    0.6843 H   0  0  0  0  0  0
    4.0543   -8.0012    2.1683 H   0  0  0  0  0  0
    0.7321   -5.6582    1.3634 H   0  0  0  0  0  0
    3.1591   -2.3354    0.3826 H   0  0  0  0  0  0
  1  2  2  0  0  0
  1  4  1  0  0  0
  1 29  1  0  0  0
  2  3  1  0  0  0
  2 30  1  0  0  0
  3  6  2  0  0  0
  3 31  1  0  0  0
  4  5  2  0  0  0
  5  6  1  0  0  0
  5 10  1  0  0  0
  6  7  1  0  0  0
  7  8  2  0  0  0
  7 12  1  0  0  0
  8  9  1  0  0  0
  8 32  1  0  0  0
  9 10  2  0  0  0
  9 15  1  0  0  0
 10 11  1  0  0  0
 12 13  2  0  0  0
 12 14  1  0  0  0
 15 16  1  0  0  0
 15 33  1  0  0  0
 15 34  1  0  0  0
 16 17  1  0  0  0
 16 21  1  0  0  0
 17 18  1  0  0  0
 17 35  1  0  0  0
 17 36  1  0  0  0
 18 19  1  0  0  0
 18 37  1  0  0  0
 18 38  1  0  0  0
 19 20  1  0  0  0
 19 22  1  0  0  0
 19 49  1  0  0  0
 20 21  1  0  0  0
 20 39  1  0  0  0
 20 40  1  0  0  0
 21 41  1  0  0  0
 21 42  1  0  0  0
 22 23  1  0  0  0
 22 43  1  0  0  0
 22 44  1  0  0  0
 23 24  2  0  0  0
 23 28  1  0  0  0
 24 25  1  0  0  0
 24 45  1  0  0  0
 25 26  2  0  0  0
 25 46  1  0  0  0
 26 27  1  0  0  0
 26 47  1  0  0  0
 27 28  2  0  0  0
 28 48  1  0  0  0
M  CHG  4  11  -1  12   1  14  -1  19   1
M  END
> <chembl_id>
CHEMBL2312210

> <chembl_pref_name>
None

> <s_m_source_file>
sdf/inactives_sanitized.sdf

> <i_m_source_file_index>
24

> <i_lp_mmshare_version>
49012

> <i_m_ct_stereo_status>
1

> <i_f3d_flags>
0

> <s_epik_input>
bjFbY0hdW2NIXVtjSF1jKGMxMiljKFtOK10oPU8pW08tXSlbY0hdYyhjMltPSF0pW0NIMl1OM1tDSDJdW0NIMl1OKFtDSDJdW0NIMl0zKVtDSDJdYzRbY0hdW2NIXVtjSF1uW2NIXTQ=

> <s_epik_cmdline>
J2VwaWtfcHl0aG9uJywgJy1waHQnLCAnMC41JywgJy1waCcsICc3LjUnLCAnLW50JywgJy1tYScsICcyMDAnLCAnLWltYWUnLCAnPGluZmlsZS5tYWU+JywgJy1vbWFlJywgJzxvdXRmaWxlLm1hZT4n

> <r_epik_Ionization_Penalty>
  0.1365

> <r_epik_Ionization_Penalty_Charging>
  0.1238

> <r_epik_Ionization_Penalty_Neutral>
  0.0127

> <r_epik_State_Penalty>
  0.6184

> <r_epik_Charging_Adjusted_Penalty>
0.742270331700495

> <i_epik_Tot_Q>
0

> <i_epik_Tot_abs_Q>
4

> <s_lp_Force_Field>
OPLS3e

> <r_lp_Energy>
61.579296

> <b_lp_Chiralities_Consistent>
1

> <s_lp_Variant>
sdf/inactives_sanitized.sdf:24-2

$$$$
sdf/inactives_sanitized.sdf:25
                    3D
 Schrodinger Suite 2020-1.
 71 74  0  0  1  0            999 V2000
   -2.7715    0.1871    1.5893 C   0  0  0  0  0  0
   -2.6231    1.2962    0.9688 N   0  0  0  0  0  0
   -0.4830   -0.4562   -0.2038 N   0  0  0  0  0  0
   -2.1900    1.3602   -0.4219 C   0  0  1  0  0  0
   -0.7690    0.7914   -0.7076 C   0  0  0  0  0  0
   -2.5455   -1.1533    0.9848 C   0  0  0  0  0  0
   -1.4700   -1.4444    0.0948 C   0  0  0  0  0  0
   -1.3025   -2.7872   -0.2950 C   0  0  0  0  0  0
   -2.1955   -3.7862    0.0715 C   0  0  0  0  0  0
   -3.2847   -3.4761    0.8687 C   0  0  0  0  0  0
   -3.4547   -2.1741    1.3184 C   0  0  0  0  0  0
   -3.1666    0.2402    3.0176 C   0  0  0  0  0  0
   -2.5543   -0.6090    3.9518 C   0  0  0  0  0  0
   -2.8929   -0.5324    5.2998 C   0  0  0  0  0  0
   -3.8432    0.3931    5.7218 C   0  0  0  0  0  0
   -4.4597    1.2429    4.8077 C   0  0  0  0  0  0
   -4.1227    1.1680    3.4591 C   0  0  0  0  0  0
   -3.3064    1.0466   -1.4564 C   0  0  0  0  0  0
    0.0430    1.5102   -1.2983 O   0  0  0  0  0  0
   -3.4262   -0.3238   -1.8321 O   0  0  0  0  0  0
   -4.2090   -0.6840   -2.8702 C   0  0  0  0  0  0
   -4.2159   -2.0712   -2.9794 N   0  0  0  0  0  0
   -4.8224    0.1087   -3.5902 O   0  0  0  0  0  0
   -4.9044   -2.8224   -3.9500 C   0  0  0  0  0  0
   -5.5663   -4.0152   -3.5847 C   0  0  0  0  0  0
   -6.2382   -4.7472   -4.5758 C   0  0  0  0  0  0
   -6.2431   -4.3225   -5.9034 C   0  0  0  0  0  0
   -5.5745   -3.1558   -6.2621 C   0  0  0  0  0  0
   -4.9064   -2.4119   -5.2932 C   0  0  0  0  0  0
   -5.5806   -4.5216   -2.1360 C   0  0  0  0  0  0
   -6.3727   -5.5822   -1.9668 F   0  0  0  0  0  0
   -4.3448   -4.8775   -1.7909 F   0  0  0  0  0  0
   -6.0036   -3.5666   -1.3066 F   0  0  0  0  0  0
   -7.0723   -5.2457   -7.1031 Cl  0  0  0  0  0  0
    0.9528   -0.8640   -0.2979 C   0  0  0  0  0  0
    1.7102   -0.5981    1.0257 C   0  0  0  0  0  0
    1.0008   -0.3608    2.1468 N   0  0  0  0  0  0
    2.9401   -0.6378    1.0122 O   0  0  0  0  0  0
    1.5430   -0.1006    3.4816 C   0  0  0  0  0  0
    0.8810    1.0492    4.2281 C   0  0  0  0  0  0
   -0.0718    1.8719    3.7403 C   0  0  0  0  0  0
   -0.6908    2.9283    4.5295 C   0  0  0  0  0  0
   -1.6617    3.5610    3.8356 O   0  0  0  0  0  0
   -0.3679    3.1958    5.6908 O   0  0  0  0  0  0
   -2.4157    4.6076    4.4298 C   0  0  0  0  0  0
   -2.0475    2.4338   -0.5595 H   0  0  0  0  0  0
   -0.4893   -3.0804   -0.9400 H   0  0  0  0  0  0
   -2.0461   -4.7993   -0.2720 H   0  0  0  0  0  0
   -3.9905   -4.2446    1.1477 H   0  0  0  0  0  0
   -4.3048   -1.9721    1.9554 H   0  0  0  0  0  0
   -1.8010   -1.3216    3.6457 H   0  0  0  0  0  0
   -2.4149   -1.1838    6.0164 H   0  0  0  0  0  0
   -4.1025    0.4545    6.7685 H   0  0  0  0  0  0
   -5.1933    1.9608    5.1438 H   0  0  0  0  0  0
   -4.6061    1.8401    2.7638 H   0  0  0  0  0  0
   -4.2685    1.4035   -1.0847 H   0  0  0  0  0  0
   -3.0955    1.6286   -2.3561 H   0  0  0  0  0  0
   -3.7748   -2.5879   -2.2322 H   0  0  0  0  0  0
   -6.7595   -5.6598   -4.3253 H   0  0  0  0  0  0
   -5.5700   -2.8255   -7.2906 H   0  0  0  0  0  0
   -4.3856   -1.5162   -5.5992 H   0  0  0  0  0  0
    1.0837   -1.9156   -0.5373 H   0  0  0  0  0  0
    1.4705   -0.3345   -1.0994 H   0  0  0  0  0  0
   -0.0037   -0.4491    2.0927 H   0  0  0  0  0  0
    1.4452   -1.0092    4.0765 H   0  0  0  0  0  0
    2.6140    0.1093    3.4525 H   0  0  0  0  0  0
    1.2289    1.1767    5.2444 H   0  0  0  0  0  0
   -0.4224    1.7634    2.7240 H   0  0  0  0  0  0
   -3.1376    4.9957    3.7112 H   0  0  0  0  0  0
   -1.7695    5.4297    4.7413 H   0  0  0  0  0  0
   -2.9644    4.2469    5.3011 H   0  0  0  0  0  0
  1 12  1  0  0  0
  1  6  1  0  0  0
  1  2  2  0  0  0
  2  4  1  0  0  0
  3  5  1  0  0  0
  3  7  1  0  0  0
  3 35  1  0  0  0
  4  5  1  0  0  0
  4 18  1  0  0  0
  4 46  1  0  0  0
  5 19  2  0  0  0
  6 11  1  0  0  0
  6  7  2  0  0  0
  7  8  1  0  0  0
  8  9  2  0  0  0
  8 47  1  0  0  0
  9 10  1  0  0  0
  9 48  1  0  0  0
 10 11  2  0  0  0
 10 49  1  0  0  0
 11 50  1  0  0  0
 12 13  2  0  0  0
 12 17  1  0  0  0
 13 14  1  0  0  0
 13 51  1  0  0  0
 14 15  2  0  0  0
 14 52  1  0  0  0
 15 16  1  0  0  0
 15 53  1  0  0  0
 16 17  2  0  0  0
 16 54  1  0  0  0
 17 55  1  0  0  0
 18 20  1  0  0  0
 18 56  1  0  0  0
 18 57  1  0  0  0
 20 21  1  0  0  0
 21 22  1  0  0  0
 21 23  2  0  0  0
 22 24  1  0  0  0
 22 58  1  0  0  0
 24 25  2  0  0  0
 24 29  1  0  0  0
 25 26  1  0  0  0
 25 30  1  0  0  0
 26 27  2  0  0  0
 26 59  1  0  0  0
 27 28  1  0  0  0
 27 34  1  0  0  0
 28 29  2  0  0  0
 28 60  1  0  0  0
 29 61  1  0  0  0
 30 31  1  0  0  0
 30 32  1  0  0  0
 30 33  1  0  0  0
 35 36  1  0  0  0
 35 62  1  0  0  0
 35 63  1  0  0  0
 36 37  1  0  0  0
 36 38  2  0  0  0
 37 39  1  0  0  0
 37 64  1  0  0  0
 39 40  1  0  0  0
 39 65  1  0  0  0
 39 66  1  0  0  0
 40 41  2  0  0  0
 40 67  1  0  0  0
 41 42  1  0  0  0
 41 68  1  0  0  0
 42 43  1  0  0  0
 42 44  2  0  0  0
 43 45  1  0  0  0
 45 69  1  0  0  0
 45 70  1  0  0  0
 45 71  1  0  0  0
M  END
> <chembl_id>
CHEMBL501901

> <chembl_pref_name>
None

> <i_m_ct_stereo_status>
1

> <s_m_source_file>
sdf/inactives_sanitized.sdf

> <i_m_source_file_index>
25

> <i_lp_mmshare_version>
49012

> <i_f3d_flags>
0

> <s_epik_input>
W2NIXTFbY0hdYyhDbClbY0hdYyhDKEYpKEYpRiljMVtOSF1DKD1PKU9bQ0gyXVtDQEBIXShOPUMyYzNbY0hdW2NIXVtjSF1bY0hdW2NIXTMpQyg9TylOKGMoYzI0KVtjSF1bY0hdW2NIXVtjSF00KVtDSDJdQyg9TylbTkhdW0NIMl0vW0NIXT1bQ0hdL0MoPU8pT1tDSDNd

> <s_epik_cmdline>
J2VwaWtfcHl0aG9uJywgJy1waHQnLCAnMC41JywgJy1waCcsICc3LjUnLCAnLW50JywgJy1tYScsICcyMDAnLCAnLWltYWUnLCAnPGluZmlsZS5tYWU+JywgJy1vbWFlJywgJzxvdXRmaWxlLm1hZT4n

> <r_lp_tautomer_probability>
1

> <r_epik_Ionization_Penalty>
  0.0001

> <r_epik_Ionization_Penalty_Charging>
  0.0000

> <r_epik_Ionization_Penalty_Neutral>
  0.0001

> <r_epik_State_Penalty>
 -0.0000

> <r_epik_Charging_Adjusted_Penalty>
0

> <i_epik_Tot_Q>
0

> <i_epik_Tot_abs_Q>
0

> <s_epik_Chemistry_Notes>
This compound has an ester and may undergo hydrolysis at high or low pH. This compound has an imine and may undergo hydrolysis.

> <s_lp_Force_Field>
OPLS3e

> <r_lp_Energy>
66.980111

> <b_lp_Chiralities_Consistent>
1

> <s_lp_Variant>
sdf/inactives_sanitized.sdf:25-1

$$$$
sdf/inactives_sanitized.sdf:26
                    3D
 Schrodinger Suite 2020-1.
 66 69  0  0  1  0            999 V2000
   -2.1710    1.0997    0.3491 C   0  0  0  0  0  0
   -2.7483   -0.1663    0.5236 C   0  0  0  0  0  0
   -1.9608   -1.3153    0.5632 C   0  0  0  0  0  0
   -0.5777   -1.2173    0.4363 C   0  0  0  0  0  0
    0.0309    0.0336    0.2774 C   0  0  0  0  0  0
   -0.7755    1.1773    0.2258 C   0  0  0  0  0  0
    1.5535    0.1683    0.1316 C   0  0  2  0  0  0
    1.9802   -0.1983   -1.3061 C   0  0  0  0  0  0
    2.3671   -0.6294    1.1931 C   0  0  0  0  0  0
    2.0191   -0.3409    2.6770 C   0  0  0  0  0  0
    2.2156    1.1378    3.0654 C   0  0  0  0  0  0
    2.8199   -1.2618    3.6160 C   0  0  0  0  0  0
    1.9496   -1.3702   -1.6859 O   0  0  0  0  0  0
    2.3674    0.8149   -2.1010 N   0  0  0  0  0  0
    2.8343    0.6577   -3.4759 C   0  0  0  0  0  0
    4.1107   -0.0731   -3.5666 C   0  0  0  0  0  0
    5.1133   -0.6463   -3.6378 N   0  0  0  0  0  0
   -3.0163    2.3304    0.2949 C   0  0  0  0  0  0
   -4.1703    2.4477    1.0815 C   0  0  0  0  0  0
   -4.9537    3.5984    1.0366 C   0  0  0  0  0  0
   -4.5973    4.6521    0.1991 C   0  0  0  0  0  0
   -3.4541    4.5685   -0.6068 C   0  0  0  0  0  0
   -2.6771    3.4030   -0.5440 C   0  0  0  0  0  0
   -3.0586    5.6925   -1.5210 C   0  0  0  0  0  0
   -3.5546    6.9092   -1.3437 N   0  0  0  0  0  0
   -3.1255    7.7917   -2.2166 C   0  0  0  0  0  0
   -2.0096    7.1413   -3.3811 S   0  0  0  0  0  0
   -2.1787    5.5993   -2.6037 C   0  0  0  0  0  0
   -3.4691    9.1230   -2.2261 N   0  0  0  0  0  0
   -3.2410   10.0471   -3.3523 C   0  0  0  0  0  0
   -2.8052   11.4584   -2.9059 C   0  0  0  0  0  0
   -3.8694   12.0402   -1.9650 N   0  3  0  0  0  0
   -4.0799   11.0941   -0.7748 C   0  0  0  0  0  0
   -4.4648    9.6962   -1.3027 C   0  0  0  0  0  0
   -3.8196   -0.2711    0.6145 H   0  0  0  0  0  0
   -2.4235   -2.2833    0.6882 H   0  0  0  0  0  0
    0.0185   -2.1174    0.4618 H   0  0  0  0  0  0
   -0.3047    2.1417    0.1010 H   0  0  0  0  0  0
    1.8032    1.2202    0.2836 H   0  0  0  0  0  0
    2.2533   -1.7001    1.0120 H   0  0  0  0  0  0
    3.4303   -0.4293    1.0440 H   0  0  0  0  0  0
    0.9657   -0.5782    2.8319 H   0  0  0  0  0  0
    3.2395    1.4658    2.8824 H   0  0  0  0  0  0
    2.0001    1.2997    4.1222 H   0  0  0  0  0  0
    1.5493    1.7936    2.5051 H   0  0  0  0  0  0
    3.8927   -1.0845    3.5301 H   0  0  0  0  0  0
    2.6386   -2.3131    3.3894 H   0  0  0  0  0  0
    2.5411   -1.1045    4.6585 H   0  0  0  0  0  0
    2.4140    1.7460   -1.7135 H   0  0  0  0  0  0
    2.0873    0.1438   -4.0832 H   0  0  0  0  0  0
    2.9802    1.6444   -3.9151 H   0  0  0  0  0  0
   -4.4629    1.6489    1.7472 H   0  0  0  0  0  0
   -5.8373    3.6739    1.6530 H   0  0  0  0  0  0
   -5.2224    5.5331    0.1784 H   0  0  0  0  0  0
   -1.7947    3.3241   -1.1614 H   0  0  0  0  0  0
   -1.6454    4.7351   -2.9711 H   0  0  0  0  0  0
   -2.4689    9.6611   -4.0160 H   0  0  0  0  0  0
   -4.1362   10.0772   -3.9757 H   0  0  0  0  0  0
   -1.8621   11.4612   -2.3562 H   0  0  0  0  0  0
   -2.7390   12.1572   -3.7403 H   0  0  0  0  0  0
   -3.5800   12.9506   -1.6361 H   0  0  0  0  0  0
   -3.1504   11.0946   -0.2025 H   0  0  0  0  0  0
   -4.8727   11.5464   -0.1781 H   0  0  0  0  0  0
   -5.4435    9.6979   -1.7847 H   0  0  0  0  0  0
   -4.5907    9.0392   -0.4415 H   0  0  0  0  0  0
   -4.7393   12.1576   -2.4656 H   0  0  0  0  0  0
  1 18  1  0  0  0
  1  6  2  0  0  0
  1  2  1  0  0  0
  2  3  2  0  0  0
  2 35  1  0  0  0
  3  4  1  0  0  0
  3 36  1  0  0  0
  4  5  2  0  0  0
  4 37  1  0  0  0
  5  6  1  0  0  0
  5  7  1  0  0  0
  6 38  1  0  0  0
  7  9  1  0  0  0
  7  8  1  0  0  0
  7 39  1  0  0  0
  8 13  2  0  0  0
  8 14  1  0  0  0
  9 10  1  0  0  0
  9 40  1  0  0  0
  9 41  1  0  0  0
 10 11  1  0  0  0
 10 12  1  0  0  0
 10 42  1  0  0  0
 11 43  1  0  0  0
 11 44  1  0  0  0
 11 45  1  0  0  0
 12 46  1  0  0  0
 12 47  1  0  0  0
 12 48  1  0  0  0
 14 15  1  0  0  0
 14 49  1  0  0  0
 15 16  1  0  0  0
 15 50  1  0  0  0
 15 51  1  0  0  0
 16 17  3  0  0  0
 18 19  2  0  0  0
 18 23  1  0  0  0
 19 20  1  0  0  0
 19 52  1  0  0  0
 20 21  2  0  0  0
 20 53  1  0  0  0
 21 22  1  0  0  0
 21 54  1  0  0  0
 22 23  2  0  0  0
 22 24  1  0  0  0
 23 55  1  0  0  0
 24 25  1  0  0  0
 24 28  2  0  0  0
 25 26  2  0  0  0
 26 27  1  0  0  0
 26 29  1  0  0  0
 27 28  1  0  0  0
 28 56  1  0  0  0
 29 30  1  0  0  0
 29 34  1  0  0  0
 30 31  1  0  0  0
 30 57  1  0  0  0
 30 58  1  0  0  0
 31 32  1  0  0  0
 31 59  1  0  0  0
 31 60  1  0  0  0
 32 33  1  0  0  0
 32 61  1  0  0  0
 32 66  1  0  0  0
 33 34  1  0  0  0
 33 62  1  0  0  0
 33 63  1  0  0  0
 34 64  1  0  0  0
 34 65  1  0  0  0
M  CHG  1  32   1
M  END
> <chembl_id>
CHEMBL212907

> <chembl_pref_name>
None

> <s_m_source_file>
sdf/inactives_sanitized.sdf

> <i_m_source_file_index>
26

> <i_lp_mmshare_version>
49012

> <i_m_ct_stereo_status>
1

> <i_f3d_flags>
0

> <s_epik_input>
TiNDW0NIMl1bTkhdQyg9TylbQ0BIXShbQ0gyXVtDSF0oW0NIM10pW0NIM10pYyhbY0hdMSlbY0hdW2NIXVtjSF1jMS1jMltjSF1bY0hdW2NIXWMoW2NIXTIpLWMzbmMoc1tjSF0zKU40W0NIMl1bQ0gyXVtOSF1bQ0gyXVtDSDJdNA==

> <s_epik_cmdline>
J2VwaWtfcHl0aG9uJywgJy1waHQnLCAnMC41JywgJy1waCcsICc3LjUnLCAnLW50JywgJy1tYScsICcyMDAnLCAnLWltYWUnLCAnPGluZmlsZS5tYWU+JywgJy1vbWFlJywgJzxvdXRmaWxlLm1hZT4n

> <r_lp_tautomer_probability>
1

> <r_epik_Ionization_Penalty>
  0.0952

> <r_epik_Ionization_Penalty_Charging>
  0.0951

> <r_epik_Ionization_Penalty_Neutral>
  0.0001

> <r_epik_State_Penalty>
 -0.0000

> <r_epik_Charging_Adjusted_Penalty>
0.0951418757596758

> <i_epik_Tot_Q>
1

> <i_epik_Tot_abs_Q>
1

> <s_lp_Force_Field>
OPLS3e

> <r_lp_Energy>
55.823636

> <b_lp_Chiralities_Consistent>
1

> <s_lp_Variant>
sdf/inactives_sanitized.sdf:26-1

$$$$
sdf/inactives_sanitized.sdf:27
                    3D
 Schrodinger Suite 2020-1.
 62 62  0  0  1  0            999 V2000
    0.0638    0.0061   -0.0259 C   0  0  0  0  0  0
    2.1191   -0.7786    1.1122 N   0  0  0  0  0  0
    2.0974   -0.3636    2.3950 C   0  0  0  0  0  0
    1.6119   -0.0263   -0.0434 C   0  0  1  0  0  0
   -0.5000    1.2200   -0.1540 N   0  0  0  0  0  0
   -2.2806    2.2464   -1.4312 C   0  0  0  0  0  0
   -1.9445    1.5019   -0.1384 C   0  0  2  0  0  0
    2.6660   -1.3197    3.4217 C   0  0  0  0  0  0
   -0.5706   -1.0457    0.0781 O   0  0  0  0  0  0
    1.6685    0.7417    2.7340 O   0  0  0  0  0  0
   -1.4336    2.6230   -2.2504 O   0  0  0  0  0  0
    3.0547   -0.8362    4.6790 C   0  0  0  0  0  0
    2.8022   -2.6910    3.1507 C   0  0  0  0  0  0
    2.1108   -0.6441   -1.3970 C   0  0  2  0  0  0
    3.5798   -1.6975    5.6381 C   0  0  0  0  0  0
    3.3267   -3.5525    4.1105 C   0  0  0  0  0  0
    3.7245   -3.0553    5.3520 C   0  0  0  0  0  0
    5.8066   -4.1400    6.3190 N   0  3  0  0  0  0
   -3.7834    2.4778   -1.6840 C   0  0  0  0  0  0
   -4.0009    3.0569   -2.9584 O   0  0  0  0  0  0
    4.2848   -3.9961    6.4037 C   0  0  0  0  0  0
   -2.3624    2.3113    1.1179 C   0  0  0  0  0  0
    3.6591   -0.6853   -1.4718 C   0  0  0  0  0  0
    1.5456    0.0552   -2.6600 C   0  0  0  0  0  0
   -2.0444    1.5957    2.4476 C   0  0  0  0  0  0
   -2.5114    2.3838    3.6831 C   0  0  0  0  0  0
    4.2140   -1.5267   -2.6316 C   0  0  0  0  0  0
   -2.1761    1.6747    5.0022 C   0  0  0  0  0  0
    2.4896   -1.6934    0.9022 H   0  0  0  0  0  0
    1.9998    0.9931    0.0259 H   0  0  0  0  0  0
    0.0993    2.0319   -0.1931 H   0  0  0  0  0  0
   -2.5100    0.5672   -0.1430 H   0  0  0  0  0  0
    2.9565    0.2123    4.9244 H   0  0  0  0  0  0
    2.4989   -3.1073    2.2006 H   0  0  0  0  0  0
    1.7675   -1.6804   -1.4313 H   0  0  0  0  0  0
    3.8739   -1.3053    6.6010 H   0  0  0  0  0  0
    3.4218   -4.6051    3.8851 H   0  0  0  0  0  0
    6.1354   -4.7694    7.0374 H   0  0  0  0  0  0
    6.2498   -3.2417    6.4500 H   0  0  0  0  0  0
   -4.3130    1.5267   -1.6268 H   0  0  0  0  0  0
   -4.1965    3.1373   -0.9213 H   0  0  0  0  0  0
   -3.5796    3.9196   -2.9776 H   0  0  0  0  0  0
    3.9077   -5.0147    6.2987 H   0  0  0  0  0  0
    4.1016   -3.6438    7.4201 H   0  0  0  0  0  0
   -1.8578    3.2799    1.1164 H   0  0  0  0  0  0
   -3.4339    2.5148    1.0918 H   0  0  0  0  0  0
    4.0421    0.3328   -1.5523 H   0  0  0  0  0  0
    4.0773   -1.0839   -0.5478 H   0  0  0  0  0  0
    1.8238    1.1092   -2.6819 H   0  0  0  0  0  0
    0.4585   -0.0008   -2.7141 H   0  0  0  0  0  0
    1.9186   -0.4030   -3.5754 H   0  0  0  0  0  0
   -2.5119    0.6097    2.4492 H   0  0  0  0  0  0
   -0.9702    1.4271    2.5264 H   0  0  0  0  0  0
   -2.0496    3.3721    3.6828 H   0  0  0  0  0  0
   -3.5884    2.5489    3.6288 H   0  0  0  0  0  0
    5.1989   -1.9242   -2.3849 H   0  0  0  0  0  0
    4.3208   -0.9273   -3.5360 H   0  0  0  0  0  0
    3.5672   -2.3731   -2.8645 H   0  0  0  0  0  0
   -2.5143    2.2617    5.8564 H   0  0  0  0  0  0
   -1.1011    1.5246    5.1086 H   0  0  0  0  0  0
   -2.6575    0.6979    5.0603 H   0  0  0  0  0  0
    6.0721   -4.5115    5.4181 H   0  0  0  0  0  0
  1  4  1  0  0  0
  1  5  1  0  0  0
  1  9  2  0  0  0
  2  4  1  0  0  0
  2  3  1  0  0  0
  2 29  1  0  0  0
  3  8  1  0  0  0
  3 10  2  0  0  0
  4 14  1  0  0  0
  4 30  1  0  0  0
  5  7  1  0  0  0
  5 31  1  0  0  0
  6  7  1  0  0  0
  6 11  2  0  0  0
  6 19  1  0  0  0
  7 22  1  0  0  0
  7 32  1  0  0  0
  8 12  2  0  0  0
  8 13  1  0  0  0
 12 15  1  0  0  0
 12 33  1  0  0  0
 13 16  2  0  0  0
 13 34  1  0  0  0
 14 23  1  0  0  0
 14 24  1  0  0  0
 14 35  1  0  0  0
 15 17  2  0  0  0
 15 36  1  0  0  0
 16 17  1  0  0  0
 16 37  1  0  0  0
 17 21  1  0  0  0
 18 21  1  0  0  0
 18 38  1  0  0  0
 18 39  1  0  0  0
 18 62  1  0  0  0
 19 20  1  0  0  0
 19 40  1  0  0  0
 19 41  1  0  0  0
 20 42  1  0  0  0
 21 43  1  0  0  0
 21 44  1  0  0  0
 22 25  1  0  0  0
 22 45  1  0  0  0
 22 46  1  0  0  0
 23 27  1  0  0  0
 23 47  1  0  0  0
 23 48  1  0  0  0
 24 49  1  0  0  0
 24 50  1  0  0  0
 24 51  1  0  0  0
 25 26  1  0  0  0
 25 52  1  0  0  0
 25 53  1  0  0  0
 26 28  1  0  0  0
 26 54  1  0  0  0
 26 55  1  0  0  0
 27 56  1  0  0  0
 27 57  1  0  0  0
 27 58  1  0  0  0
 28 59  1  0  0  0
 28 60  1  0  0  0
 28 61  1  0  0  0
M  CHG  1  18   1
M  END
> <chembl_id>
CHEMBL96987

> <chembl_pref_name>
None

> <i_m_ct_stereo_status>
1

> <s_m_source_file>
sdf/inactives_sanitized.sdf

> <i_m_source_file_index>
27

> <i_lp_mmshare_version>
49012

> <i_f3d_flags>
0

> <s_epik_input>
W0NIM11bQ0gyXVtDSDJdW0NIMl1bQ0BASF0oQyg9TylbQ0gyXVtPSF0pW05IXUMoPU8pW0NASF0oW0NAQEhdKFtDSDNdKVtDSDJdW0NIM10pW05IXUMoPU8pYzFbY0hdW2NIXWMoW2NIXVtjSF0xKVtDSDJdW05IMl0=

> <s_epik_cmdline>
J2VwaWtfcHl0aG9uJywgJy1waHQnLCAnMC41JywgJy1waCcsICc3LjUnLCAnLW50JywgJy1tYScsICcyMDAnLCAnLWltYWUnLCAnPGluZmlsZS5tYWU+JywgJy1vbWFlJywgJzxvdXRmaWxlLm1hZT4n

> <r_lp_tautomer_probability>
0.99990000499975

> <r_epik_Ionization_Penalty>
  0.0977

> <r_epik_Ionization_Penalty_Charging>
  0.0976

> <r_epik_Ionization_Penalty_Neutral>
  0.0001

> <r_epik_State_Penalty>
  0.0878

> <r_epik_Charging_Adjusted_Penalty>
0.185400612109945

> <i_epik_Tot_Q>
1

> <i_epik_Tot_abs_Q>
1

> <s_lp_Force_Field>
OPLS3e

> <r_lp_Energy>
33.666809

> <b_lp_Chiralities_Consistent>
1

> <s_lp_Variant>
sdf/inactives_sanitized.sdf:27-1

$$$$
sdf/inactives_sanitized.sdf:28
                    3D
 Schrodinger Suite 2020-1.
 45 46  0  0  1  0            999 V2000
    3.9259   -0.2951   -0.8747 O   0  0  0  0  0  0
    2.7177    0.1331   -1.2876 C   0  0  0  0  0  0
    2.4784    0.5917   -2.4078 O   0  0  0  0  0  0
   -1.1583    3.5130   -1.6600 O   0  0  0  0  0  0
   -2.1811    3.5478   -2.5522 C   0  0  0  0  0  0
   -2.5447    2.3542   -2.9511 N   0  0  0  0  0  0
   -1.7137    1.4584   -2.2844 N   0  0  0  0  0  0
   -0.9143    2.1818   -1.5345 C   0  0  0  0  0  0
    0.1474    1.7513   -0.6292 C   0  0  0  0  0  0
    0.8378    2.5855   -0.0377 O   0  0  0  0  0  0
    0.3624    0.2446   -0.4206 C   0  0  1  0  0  0
    1.8024   -0.0488   -0.2521 N   0  0  0  0  0  0
   -0.4080   -0.2394    0.8380 C   0  0  0  0  0  0
   -1.9479   -0.1753    0.7431 C   0  0  0  0  0  0
   -2.6458   -0.8018    1.9575 C   0  0  0  0  0  0
   -2.7400    4.8221   -2.9496 C   0  0  0  0  0  0
   -3.7659    5.1897   -3.8114 C   0  0  0  0  0  0
   -3.8459    6.5826   -3.7823 C   0  0  0  0  0  0
   -2.8644    7.0081   -2.9042 C   0  0  0  0  0  0
   -2.1942    5.9407   -2.3998 O   0  0  0  0  0  0
    5.0590   -0.2273   -1.7341 C   0  0  0  0  0  0
    6.3224   -0.7360   -1.0113 C   0  0  0  0  0  0
    6.6572    0.0983    0.2402 C   0  0  0  0  0  0
    7.5195   -0.7882   -1.9764 C   0  0  0  0  0  0
    0.0035   -0.3493   -1.2642 H   0  0  0  0  0  0
    2.0538   -0.7066    0.4712 H   0  0  0  0  0  0
   -0.1256   -1.2763    1.0311 H   0  0  0  0  0  0
   -0.0717    0.3139    1.7177 H   0  0  0  0  0  0
   -2.2760    0.8608    0.6534 H   0  0  0  0  0  0
   -2.2822   -0.6863   -0.1608 H   0  0  0  0  0  0
   -3.7296   -0.7343    1.8606 H   0  0  0  0  0  0
   -2.3642   -0.2949    2.8811 H   0  0  0  0  0  0
   -2.3887   -1.8564    2.0622 H   0  0  0  0  0  0
   -4.3847    4.5220   -4.3930 H   0  0  0  0  0  0
   -4.5353    7.2044   -4.3342 H   0  0  0  0  0  0
   -2.5445    7.9802   -2.5589 H   0  0  0  0  0  0
    4.8688   -0.8380   -2.6185 H   0  0  0  0  0  0
    5.2099    0.7993   -2.0730 H   0  0  0  0  0  0
    6.1282   -1.7595   -0.6864 H   0  0  0  0  0  0
    6.8494    1.1410   -0.0154 H   0  0  0  0  0  0
    7.5429   -0.2871    0.7464 H   0  0  0  0  0  0
    5.8406    0.0803    0.9629 H   0  0  0  0  0  0
    7.7766    0.2044   -2.3484 H   0  0  0  0  0  0
    7.3045   -1.4195   -2.8395 H   0  0  0  0  0  0
    8.4042   -1.1981   -1.4877 H   0  0  0  0  0  0
  1  2  1  0  0  0
  1 21  1  0  0  0
  2  3  2  0  0  0
  2 12  1  0  0  0
  4  5  1  0  0  0
  4  8  1  0  0  0
  5  6  2  0  0  0
  5 16  1  0  0  0
  6  7  1  0  0  0
  7  8  2  0  0  0
  8  9  1  0  0  0
  9 10  2  0  0  0
  9 11  1  0  0  0
 11 13  1  0  0  0
 11 12  1  0  0  0
 11 25  1  0  0  0
 12 26  1  0  0  0
 13 14  1  0  0  0
 13 27  1  0  0  0
 13 28  1  0  0  0
 14 15  1  0  0  0
 14 29  1  0  0  0
 14 30  1  0  0  0
 15 31  1  0  0  0
 15 32  1  0  0  0
 15 33  1  0  0  0
 16 17  2  0  0  0
 16 20  1  0  0  0
 17 18  1  0  0  0
 17 34  1  0  0  0
 18 19  2  0  0  0
 18 35  1  0  0  0
 19 20  1  0  0  0
 19 36  1  0  0  0
 21 22  1  0  0  0
 21 37  1  0  0  0
 21 38  1  0  0  0
 22 23  1  0  0  0
 22 24  1  0  0  0
 22 39  1  0  0  0
 23 40  1  0  0  0
 23 41  1  0  0  0
 23 42  1  0  0  0
 24 43  1  0  0  0
 24 44  1  0  0  0
 24 45  1  0  0  0
M  END
> <chembl_id>
CHEMBL210702

> <chembl_pref_name>
None

> <i_m_ct_stereo_status>
1

> <s_m_source_file>
sdf/inactives_sanitized.sdf

> <i_m_source_file_index>
28

> <i_lp_mmshare_version>
49012

> <i_f3d_flags>
0

> <s_epik_input>
W0NIM11bQ0hdKFtDSDNdKVtDSDJdT0MoPU8pW05IXVtDQEBIXShbQ0gyXVtDSDJdW0NIM10pQyg9TyljKG5uMSlvYzEtYzJbY0hdW2NIXVtjSF1vMg==

> <s_epik_cmdline>
J2VwaWtfcHl0aG9uJywgJy1waHQnLCAnMC41JywgJy1waCcsICc3LjUnLCAnLW50JywgJy1tYScsICcyMDAnLCAnLWltYWUnLCAnPGluZmlsZS5tYWU+JywgJy1vbWFlJywgJzxvdXRmaWxlLm1hZT4n

> <r_lp_tautomer_probability>
1

> <r_epik_Ionization_Penalty>
  0.0000

> <r_epik_Ionization_Penalty_Charging>
  0.0000

> <r_epik_Ionization_Penalty_Neutral>
  0.0000

> <r_epik_State_Penalty>
 -0.0000

> <r_epik_Charging_Adjusted_Penalty>
0

> <i_epik_Tot_Q>
0

> <i_epik_Tot_abs_Q>
0

> <s_epik_Chemistry_Notes>
This compound has an ester and may undergo hydrolysis at high or low pH.

> <s_lp_Force_Field>
OPLS3e

> <r_lp_Energy>
20.621236

> <b_lp_Chiralities_Consistent>
1

> <s_lp_Variant>
sdf/inactives_sanitized.sdf:28-1

$$$$
sdf/inactives_sanitized.sdf:29
                    3D
 Schrodinger Suite 2020-1.
 45 47  0  0  1  0            999 V2000
    3.6423   -3.2201   -0.9476 C   0  0  0  0  0  0
    3.3094   -1.9292   -0.1921 C   0  0  0  0  0  0
    3.7701   -1.7336    0.9325 O   0  0  0  0  0  0
   -1.3400   -1.9578    0.0476 O   0  0  0  0  0  0
   -1.4668   -3.0195    0.8842 C   0  0  0  0  0  0
   -0.5005   -3.0886    1.7658 N   0  0  0  0  0  0
    0.3399   -2.0133    1.4951 N   0  0  0  0  0  0
   -0.1867   -1.3793    0.4728 C   0  0  0  0  0  0
    0.3248   -0.2216   -0.2621 C   0  0  0  0  0  0
   -0.4464    0.4726   -0.9276 O   0  0  0  0  0  0
    1.8208    0.0904   -0.1956 C   0  0  1  0  0  0
    2.4523   -1.0906   -0.8013 N   0  0  0  0  0  0
    2.2155    1.4104   -0.9092 C   0  0  0  0  0  0
    3.7179    1.7393   -0.8030 C   0  0  0  0  0  0
    4.0845    3.0739   -1.4659 C   0  0  0  0  0  0
   -2.5695   -3.9389    0.7103 C   0  0  0  0  0  0
   -2.9501   -5.1074    1.3577 C   0  0  0  0  0  0
   -4.1072   -5.5663    0.7271 C   0  0  0  0  0  0
   -4.3839   -4.6593   -0.2809 C   0  0  0  0  0  0
   -3.4511   -3.6730   -0.2912 O   0  0  0  0  0  0
    2.6042   -4.2931   -0.6308 C   0  0  0  0  0  0
    1.4383   -4.3859   -1.3989 C   0  0  0  0  0  0
    0.4630   -5.3252   -1.0747 C   0  0  0  0  0  0
    0.6515   -6.1653    0.0204 C   0  0  0  0  0  0
    1.8064   -6.0749    0.7944 C   0  0  0  0  0  0
    2.7826   -5.1362    0.4706 C   0  0  0  0  0  0
    3.6657   -3.0293   -2.0222 H   0  0  0  0  0  0
    4.6407   -3.5586   -0.6654 H   0  0  0  0  0  0
    2.0953    0.1846    0.8579 H   0  0  0  0  0  0
    2.1710   -1.2897   -1.7506 H   0  0  0  0  0  0
    1.6453    2.2377   -0.4819 H   0  0  0  0  0  0
    1.9457    1.3553   -1.9658 H   0  0  0  0  0  0
    4.0127    1.7711    0.2469 H   0  0  0  0  0  0
    4.3063    0.9449   -1.2641 H   0  0  0  0  0  0
    5.1521    3.2743   -1.3726 H   0  0  0  0  0  0
    3.5507    3.9052   -1.0043 H   0  0  0  0  0  0
    3.8412    3.0683   -2.5289 H   0  0  0  0  0  0
   -2.4428   -5.5728    2.1901 H   0  0  0  0  0  0
   -4.6731   -6.4523    0.9748 H   0  0  0  0  0  0
   -5.1627   -4.5893   -1.0260 H   0  0  0  0  0  0
    1.2813   -3.7237   -2.2381 H   0  0  0  0  0  0
   -0.4404   -5.3950   -1.6625 H   0  0  0  0  0  0
   -0.1089   -6.8886    0.2758 H   0  0  0  0  0  0
    1.9407   -6.7248    1.6466 H   0  0  0  0  0  0
    3.6706   -5.0565    1.0809 H   0  0  0  0  0  0
  1  2  1  0  0  0
  1 21  1  0  0  0
  1 27  1  0  0  0
  1 28  1  0  0  0
  2  3  2  0  0  0
  2 12  1  0  0  0
  4  5  1  0  0  0
  4  8  1  0  0  0
  5  6  2  0  0  0
  5 16  1  0  0  0
  6  7  1  0  0  0
  7  8  2  0  0  0
  8  9  1  0  0  0
  9 10  2  0  0  0
  9 11  1  0  0  0
 11 12  1  0  0  0
 11 13  1  0  0  0
 11 29  1  0  0  0
 12 30  1  0  0  0
 13 14  1  0  0  0
 13 31  1  0  0  0
 13 32  1  0  0  0
 14 15  1  0  0  0
 14 33  1  0  0  0
 14 34  1  0  0  0
 15 35  1  0  0  0
 15 36  1  0  0  0
 15 37  1  0  0  0
 16 17  2  0  0  0
 16 20  1  0  0  0
 17 18  1  0  0  0
 17 38  1  0  0  0
 18 19  2  0  0  0
 18 39  1  0  0  0
 19 20  1  0  0  0
 19 40  1  0  0  0
 21 22  2  0  0  0
 21 26  1  0  0  0
 22 23  1  0  0  0
 22 41  1  0  0  0
 23 24  2  0  0  0
 23 42  1  0  0  0
 24 25  1  0  0  0
 24 43  1  0  0  0
 25 26  2  0  0  0
 25 44  1  0  0  0
 26 45  1  0  0  0
M  END
> <chembl_id>
CHEMBL209294

> <chembl_pref_name>
None

> <i_m_ct_stereo_status>
1

> <s_m_source_file>
sdf/inactives_sanitized.sdf

> <i_m_source_file_index>
29

> <i_lp_mmshare_version>
49012

> <i_f3d_flags>
0

> <s_epik_input>
W2NIXTFbY0hdW2NIXVtjSF1bY0hdYzFbQ0gyXUMoPU8pW05IXVtDQEBIXShbQ0gyXVtDSDJdW0NIM10pQyg9TyljKG5uMilvYzItYzNbY0hdW2NIXVtjSF1vMw==

> <s_epik_cmdline>
J2VwaWtfcHl0aG9uJywgJy1waHQnLCAnMC41JywgJy1waCcsICc3LjUnLCAnLW50JywgJy1tYScsICcyMDAnLCAnLWltYWUnLCAnPGluZmlsZS5tYWU+JywgJy1vbWFlJywgJzxvdXRmaWxlLm1hZT4n

> <r_lp_tautomer_probability>
1

> <r_epik_Ionization_Penalty>
  0.0000

> <r_epik_Ionization_Penalty_Charging>
  0.0000

> <r_epik_Ionization_Penalty_Neutral>
  0.0000

> <r_epik_State_Penalty>
 -0.0000

> <r_epik_Charging_Adjusted_Penalty>
0

> <i_epik_Tot_Q>
0

> <i_epik_Tot_abs_Q>
0

> <s_lp_Force_Field>
OPLS3e

> <r_lp_Energy>
30.397786

> <b_lp_Chiralities_Consistent>
1

> <s_lp_Variant>
sdf/inactives_sanitized.sdf:29-1

$$$$
sdf/inactives_sanitized.sdf:30
                    3D
 Schrodinger Suite 2020-1.
 53 55  0  0  1  0            999 V2000
   -2.2216   -0.0693    1.6682 C   0  0  0  0  0  0
   -0.8089   -0.6337    1.6680 C   0  0  0  0  0  0
   -0.2331   -0.3243    0.2779 C   0  0  1  0  0  0
   -0.9338    0.9468   -0.0627 N   0  0  2  0  0  0
   -2.3176    0.8767    0.4693 C   0  0  0  0  0  0
    1.3007   -0.1740    0.3210 C   0  0  0  0  0  0
    2.0130   -1.1759   -0.2252 N   0  0  0  0  0  0
    1.8192    0.7685    0.9226 O   0  0  0  0  0  0
   -0.6814    1.7297   -1.6359 S   0  0  0  0  0  0
   -1.3863    3.3657   -1.4528 C   0  0  0  0  0  0
    0.7596    1.9067   -1.8498 O   0  0  0  0  0  0
   -1.4867    1.0038   -2.6254 O   0  0  0  0  0  0
    3.4716   -1.3187   -0.1594 C   0  0  2  0  0  0
    3.8891   -1.5422   -1.5972 C   0  0  0  0  0  0
    3.8798   -2.4683    0.7999 C   0  0  0  0  0  0
    3.4636   -2.2644    2.2480 C   0  0  0  0  0  0
    2.2189   -2.7456    2.7090 C   0  0  0  0  0  0
    1.7972   -2.4578    4.0003 C   0  0  0  0  0  0
    2.5846   -1.6752    4.8353 C   0  0  0  0  0  0
    3.7941   -1.1627    4.3828 C   0  0  0  0  0  0
    4.2324   -1.4376    3.0941 C   0  0  0  0  0  0
    4.7176   -2.3841   -1.9436 O   0  0  0  0  0  0
   -0.6231    4.3826   -0.8797 C   0  0  0  0  0  0
   -1.1714    5.6519   -0.7213 C   0  0  0  0  0  0
   -2.4798    5.9165   -1.1290 C   0  0  0  0  0  0
   -2.6971    3.6148   -1.8610 C   0  0  0  0  0  0
   -3.2426    4.8854   -1.7013 C   0  0  0  0  0  0
   -2.9369    7.2054   -0.9324 O   0  0  0  0  0  0
   -4.2624    7.5403   -1.3294 C   0  0  0  0  0  0
   -2.4175    0.4637    2.5993 H   0  0  0  0  0  0
   -2.9649   -0.8641    1.5896 H   0  0  0  0  0  0
   -0.8242   -1.7090    1.8522 H   0  0  0  0  0  0
   -0.2193   -0.1929    2.4755 H   0  0  0  0  0  0
   -0.5050   -1.1136   -0.4267 H   0  0  0  0  0  0
   -2.7542    1.8629    0.6296 H   0  0  0  0  0  0
   -2.9609    0.4446   -0.2991 H   0  0  0  0  0  0
    1.5188   -1.9575   -0.6309 H   0  0  0  0  0  0
    3.9382   -0.3940    0.1874 H   0  0  0  0  0  0
    3.4194   -0.8795   -2.3257 H   0  0  0  0  0  0
    3.4548   -3.4151    0.4606 H   0  0  0  0  0  0
    4.9635   -2.5984    0.7813 H   0  0  0  0  0  0
    1.5888   -3.3348    2.0589 H   0  0  0  0  0  0
    0.8490   -2.8356    4.3530 H   0  0  0  0  0  0
    2.2490   -1.4532    5.8375 H   0  0  0  0  0  0
    4.3911   -0.5394    5.0321 H   0  0  0  0  0  0
    5.1622   -1.0152    2.7420 H   0  0  0  0  0  0
    0.3891    4.1922   -0.5533 H   0  0  0  0  0  0
   -0.5761    6.4363   -0.2772 H   0  0  0  0  0  0
   -3.2971    2.8300   -2.2982 H   0  0  0  0  0  0
   -4.2586    5.0506   -2.0261 H   0  0  0  0  0  0
   -4.4489    8.5917   -1.1109 H   0  0  0  0  0  0
   -5.0029    6.9529   -0.7844 H   0  0  0  0  0  0
   -4.4086    7.3959   -2.4011 H   0  0  0  0  0  0
  1  5  1  0  0  0
  1  2  1  0  0  0
  1 30  1  0  0  0
  1 31  1  0  0  0
  2  3  1  0  0  0
  2 32  1  0  0  0
  2 33  1  0  0  0
  3  4  1  0  0  0
  3  6  1  0  0  0
  3 34  1  0  0  0
  4  9  1  0  0  0
  4  5  1  0  0  0
  5 35  1  0  0  0
  5 36  1  0  0  0
  6  7  1  0  0  0
  6  8  2  0  0  0
  7 13  1  0  0  0
  7 37  1  0  0  0
  9 10  1  0  0  0
  9 11  2  0  0  0
  9 12  2  0  0  0
 10 23  2  0  0  0
 10 26  1  0  0  0
 13 15  1  0  0  0
 13 14  1  0  0  0
 13 38  1  0  0  0
 14 22  2  0  0  0
 14 39  1  0  0  0
 15 16  1  0  0  0
 15 40  1  0  0  0
 15 41  1  0  0  0
 16 17  2  0  0  0
 16 21  1  0  0  0
 17 18  1  0  0  0
 17 42  1  0  0  0
 18 19  2  0  0  0
 18 43  1  0  0  0
 19 20  1  0  0  0
 19 44  1  0  0  0
 20 21  2  0  0  0
 20 45  1  0  0  0
 21 46  1  0  0  0
 23 24  1  0  0  0
 23 47  1  0  0  0
 24 25  2  0  0  0
 24 48  1  0  0  0
 25 27  1  0  0  0
 25 28  1  0  0  0
 26 27  2  0  0  0
 26 49  1  0  0  0
 27 50  1  0  0  0
 28 29  1  0  0  0
 29 51  1  0  0  0
 29 52  1  0  0  0
 29 53  1  0  0  0
M  END
> <chembl_id>
CHEMBL211105

> <chembl_pref_name>
None

> <i_m_ct_stereo_status>
1

> <s_m_source_file>
sdf/inactives_sanitized.sdf

> <i_m_source_file_index>
30

> <i_lp_mmshare_version>
49012

> <i_f3d_flags>
0

> <s_epik_input>
W2NIXTFbY0hdYyhPW0NIM10pW2NIXVtjSF1jMVMoPU8pKD1PKU4yW0NIMl1bQ0gyXVtDSDJdW0NAQEhdMkMoPU8pW05IXVtDQEhdKFtDSF09TylbQ0gyXWMzW2NIXVtjSF1bY0hdW2NIXVtjSF0z

> <s_epik_cmdline>
J2VwaWtfcHl0aG9uJywgJy1waHQnLCAnMC41JywgJy1waCcsICc3LjUnLCAnLW50JywgJy1tYScsICcyMDAnLCAnLWltYWUnLCAnPGluZmlsZS5tYWU+JywgJy1vbWFlJywgJzxvdXRmaWxlLm1hZT4n

> <r_lp_tautomer_probability>
1

> <r_epik_Ionization_Penalty>
  0.0029

> <r_epik_Ionization_Penalty_Charging>
  0.0000

> <r_epik_Ionization_Penalty_Neutral>
  0.0029

> <r_epik_State_Penalty>
 -0.0000

> <r_epik_Charging_Adjusted_Penalty>
0

> <i_epik_Tot_Q>
0

> <i_epik_Tot_abs_Q>
0

> <s_lp_Force_Field>
OPLS3e

> <r_lp_Energy>
34.37029

> <b_lp_Chiralities_Consistent>
1

> <s_lp_Variant>
sdf/inactives_sanitized.sdf:30-1

$$$$
sdf/inactives_sanitized.sdf:31
                    3D
 Schrodinger Suite 2020-1.
 49 51  0  0  1  0            999 V2000
   -4.3398    1.0341    1.3266 C   0  0  0  0  0  0
   -2.8551    0.7383    1.4785 C   0  0  0  0  0  0
   -2.3252    0.4751    0.0600 C   0  0  1  0  0  0
   -3.2429    1.3057   -0.7717 N   0  0  2  0  0  0
   -4.5962    1.2491   -0.1660 C   0  0  0  0  0  0
   -0.8465    0.8893   -0.0753 C   0  0  0  0  0  0
    0.0485   -0.1126   -0.1342 N   0  0  0  0  0  0
   -0.5232    2.0774   -0.0175 O   0  0  0  0  0  0
   -3.1219    1.2890   -2.5430 S   0  0  0  0  0  0
   -4.1348    2.6642   -3.0829 C   0  0  0  0  0  0
   -1.7388    1.6031   -2.9195 O   0  0  0  0  0  0
   -3.7553    0.0512   -3.0128 O   0  0  0  0  0  0
    1.5120    0.0424   -0.1032 C   0  0  2  0  0  0
    2.0916   -0.6602   -1.3201 C   0  0  0  0  0  0
    2.0886   -0.5546    1.2051 C   0  0  0  0  0  0
    1.5948    0.1071    2.4829 C   0  0  0  0  0  0
    0.4418   -0.3764    3.1390 C   0  0  0  0  0  0
   -0.0649    0.2971    4.2424 C   0  0  0  0  0  0
    0.5440    1.4625    4.6907 C   0  0  0  0  0  0
    1.6565    1.9717    4.0324 C   0  0  0  0  0  0
    2.1769    1.3139    2.9255 C   0  0  0  0  0  0
    1.4335   -1.2275   -2.1948 O   0  0  0  0  0  0
   -5.4519    2.4487   -3.4964 C   0  0  0  0  0  0
   -6.2365    3.5282   -3.8938 C   0  0  0  0  0  0
   -5.7039    4.8166   -3.8705 C   0  0  0  0  0  0
   -3.6063    3.9564   -3.0525 C   0  0  0  0  0  0
   -4.3924    5.0344   -3.4502 C   0  0  0  0  0  0
   -6.6776    6.1539   -4.3629 Cl  0  0  0  0  0  0
   -4.6056    1.9272    1.8939 H   0  0  0  0  0  0
   -4.9526    0.2170    1.7099 H   0  0  0  0  0  0
   -2.7017   -0.1344    2.1154 H   0  0  0  0  0  0
   -2.3472    1.5704    1.9724 H   0  0  0  0  0  0
   -2.4319   -0.5826   -0.1919 H   0  0  0  0  0  0
   -5.2219    2.0925   -0.4590 H   0  0  0  0  0  0
   -5.1278    0.3952   -0.5889 H   0  0  0  0  0  0
   -0.2861   -1.0647   -0.1022 H   0  0  0  0  0  0
    1.7910    1.0969   -0.1577 H   0  0  0  0  0  0
    3.1799   -0.6261   -1.3743 H   0  0  0  0  0  0
    1.8553   -1.6193    1.2720 H   0  0  0  0  0  0
    3.1782   -0.4846    1.1970 H   0  0  0  0  0  0
   -0.0523   -1.2688    2.7839 H   0  0  0  0  0  0
   -0.9410   -0.0812    4.7481 H   0  0  0  0  0  0
    0.1428    1.9822    5.5484 H   0  0  0  0  0  0
    2.1128    2.8881    4.3766 H   0  0  0  0  0  0
    3.0278    1.7291    2.4054 H   0  0  0  0  0  0
   -5.8711    1.4533   -3.5101 H   0  0  0  0  0  0
   -7.2542    3.3643   -4.2171 H   0  0  0  0  0  0
   -2.5926    4.1269   -2.7198 H   0  0  0  0  0  0
   -3.9844    6.0342   -3.4300 H   0  0  0  0  0  0
  1  5  1  0  0  0
  1  2  1  0  0  0
  1 29  1  0  0  0
  1 30  1  0  0  0
  2  3  1  0  0  0
  2 31  1  0  0  0
  2 32  1  0  0  0
  3  4  1  0  0  0
  3  6  1  0  0  0
  3 33  1  0  0  0
  4  9  1  0  0  0
  4  5  1  0  0  0
  5 34  1  0  0  0
  5 35  1  0  0  0
  6  7  1  0  0  0
  6  8  2  0  0  0
  7 13  1  0  0  0
  7 36  1  0  0  0
  9 10  1  0  0  0
  9 11  2  0  0  0
  9 12  2  0  0  0
 10 23  2  0  0  0
 10 26  1  0  0  0
 13 14  1  0  0  0
 13 15  1  0  0  0
 13 37  1  0  0  0
 14 22  2  0  0  0
 14 38  1  0  0  0
 15 16  1  0  0  0
 15 39  1  0  0  0
 15 40  1  0  0  0
 16 17  2  0  0  0
 16 21  1  0  0  0
 17 18  1  0  0  0
 17 41  1  0  0  0
 18 19  2  0  0  0
 18 42  1  0  0  0
 19 20  1  0  0  0
 19 43  1  0  0  0
 20 21  2  0  0  0
 20 44  1  0  0  0
 21 45  1  0  0  0
 23 24  1  0  0  0
 23 46  1  0  0  0
 24 25  2  0  0  0
 24 47  1  0  0  0
 25 27  1  0  0  0
 25 28  1  0  0  0
 26 27  2  0  0  0
 26 48  1  0  0  0
 27 49  1  0  0  0
M  END
> <chembl_id>
CHEMBL213209

> <chembl_pref_name>
None

> <i_m_ct_stereo_status>
1

> <s_m_source_file>
sdf/inactives_sanitized.sdf

> <i_m_source_file_index>
31

> <i_lp_mmshare_version>
49012

> <i_f3d_flags>
0

> <s_epik_input>
W2NIXTFbY0hdYyhDbClbY0hdW2NIXWMxUyg9TykoPU8pTjJbQ0gyXVtDSDJdW0NIMl1bQ0BASF0yQyg9TylbTkhdW0NASF0oW0NIXT1PKVtDSDJdYzNbY0hdW2NIXVtjSF1bY0hdW2NIXTM=

> <s_epik_cmdline>
J2VwaWtfcHl0aG9uJywgJy1waHQnLCAnMC41JywgJy1waCcsICc3LjUnLCAnLW50JywgJy1tYScsICcyMDAnLCAnLWltYWUnLCAnPGluZmlsZS5tYWU+JywgJy1vbWFlJywgJzxvdXRmaWxlLm1hZT4n

> <r_lp_tautomer_probability>
1

> <r_epik_Ionization_Penalty>
  0.0030

> <r_epik_Ionization_Penalty_Charging>
  0.0000

> <r_epik_Ionization_Penalty_Neutral>
  0.0030

> <r_epik_State_Penalty>
 -0.0000

> <r_epik_Charging_Adjusted_Penalty>
0

> <i_epik_Tot_Q>
0

> <i_epik_Tot_abs_Q>
0

> <s_lp_Force_Field>
OPLS3e

> <r_lp_Energy>
32.569408

> <b_lp_Chiralities_Consistent>
1

> <s_lp_Variant>
sdf/inactives_sanitized.sdf:31-1

$$$$
sdf/inactives_sanitized.sdf:32
                    3D
 Schrodinger Suite 2020-1.
 52 54  0  0  1  0            999 V2000
   -1.9718    0.0029    0.9465 C   0  0  0  0  0  0
   -0.5335   -0.4351    0.7150 C   0  0  0  0  0  0
   -0.1303    0.1531   -0.6451 C   0  0  1  0  0  0
   -0.9374    1.4063   -0.6814 N   0  0  2  0  0  0
   -2.2490    1.1403   -0.0391 C   0  0  0  0  0  0
    1.3867    0.4146   -0.7253 C   0  0  0  0  0  0
    2.0933   -0.4023   -1.5296 N   0  0  0  0  0  0
    1.9147    1.2698   -0.0119 O   0  0  0  0  0  0
   -0.9032    2.4754   -2.0992 S   0  0  0  0  0  0
   -1.6183    4.0127   -1.5231 C   0  0  0  0  0  0
    0.4956    2.7578   -2.4418 O   0  0  0  0  0  0
   -1.8098    1.9026   -3.1013 O   0  0  0  0  0  0
   -2.9721    4.2824   -1.7351 C   0  0  0  0  0  0
   -3.5214    5.4718   -1.2643 C   0  0  0  0  0  0
   -2.7199    6.3875   -0.5797 C   0  0  0  0  0  0
   -1.3692    6.1103   -0.3579 C   0  0  0  0  0  0
   -0.8182    4.9215   -0.8282 C   0  0  0  0  0  0
   -3.3289    7.6785   -0.0634 C   0  0  0  0  0  0
    3.5472   -0.3729   -1.7506 C   0  0  2  0  0  0
    3.8408    0.7752   -2.7046 C   0  0  0  0  0  0
    4.0478   -1.7447   -2.2739 C   0  0  0  0  0  0
    3.7866   -2.9166   -1.3406 C   0  0  0  0  0  0
    4.6450   -3.1563   -0.2466 C   0  0  0  0  0  0
    4.3463   -4.1617    0.6635 C   0  0  0  0  0  0
    3.1895   -4.9172    0.5177 C   0  0  0  0  0  0
    2.3148   -4.6672   -0.5322 C   0  0  0  0  0  0
    2.5952   -3.6658   -1.4524 C   0  0  0  0  0  0
    4.6707    0.7129   -3.6116 O   0  0  0  0  0  0
   -2.1067    0.3390    1.9753 H   0  0  0  0  0  0
   -2.6664   -0.8225    0.7831 H   0  0  0  0  0  0
   -0.4597   -1.5238    0.7064 H   0  0  0  0  0  0
    0.1085   -0.0894    1.5288 H   0  0  0  0  0  0
   -0.4307   -0.5208   -1.4508 H   0  0  0  0  0  0
   -2.7190    2.0469    0.3426 H   0  0  0  0  0  0
   -2.9473    0.8054   -0.8078 H   0  0  0  0  0  0
    1.5950   -1.0985   -2.0647 H   0  0  0  0  0  0
   -3.6000    3.5769   -2.2593 H   0  0  0  0  0  0
   -4.5685    5.6795   -1.4314 H   0  0  0  0  0  0
   -0.7453    6.8106    0.1781 H   0  0  0  0  0  0
    0.2258    4.7083   -0.6494 H   0  0  0  0  0  0
   -2.6683    8.1924    0.6361 H   0  0  0  0  0  0
   -4.2614    7.4700    0.4628 H   0  0  0  0  0  0
   -3.5601    8.3475   -0.8927 H   0  0  0  0  0  0
    4.0373   -0.1782   -0.7943 H   0  0  0  0  0  0
    3.2803    1.6920   -2.5178 H   0  0  0  0  0  0
    3.5867   -1.9736   -3.2370 H   0  0  0  0  0  0
    5.1232   -1.7024   -2.4566 H   0  0  0  0  0  0
    5.5357   -2.5597   -0.1137 H   0  0  0  0  0  0
    5.0115   -4.3508    1.4930 H   0  0  0  0  0  0
    2.9625   -5.6948    1.2321 H   0  0  0  0  0  0
    1.4091   -5.2476   -0.6283 H   0  0  0  0  0  0
    1.8989   -3.4643   -2.2531 H   0  0  0  0  0  0
  1  5  1  0  0  0
  1  2  1  0  0  0
  1 29  1  0  0  0
  1 30  1  0  0  0
  2  3  1  0  0  0
  2 31  1  0  0  0
  2 32  1  0  0  0
  3  4  1  0  0  0
  3  6  1  0  0  0
  3 33  1  0  0  0
  4  9  1  0  0  0
  4  5  1  0  0  0
  5 34  1  0  0  0
  5 35  1  0  0  0
  6  7  1  0  0  0
  6  8  2  0  0  0
  7 19  1  0  0  0
  7 36  1  0  0  0
  9 10  1  0  0  0
  9 11  2  0  0  0
  9 12  2  0  0  0
 10 17  2  0  0  0
 10 13  1  0  0  0
 13 14  2  0  0  0
 13 37  1  0  0  0
 14 15  1  0  0  0
 14 38  1  0  0  0
 15 16  2  0  0  0
 15 18  1  0  0  0
 16 17  1  0  0  0
 16 39  1  0  0  0
 17 40  1  0  0  0
 18 41  1  0  0  0
 18 42  1  0  0  0
 18 43  1  0  0  0
 19 20  1  0  0  0
 19 21  1  0  0  0
 19 44  1  0  0  0
 20 28  2  0  0  0
 20 45  1  0  0  0
 21 22  1  0  0  0
 21 46  1  0  0  0
 21 47  1  0  0  0
 22 23  2  0  0  0
 22 27  1  0  0  0
 23 24  1  0  0  0
 23 48  1  0  0  0
 24 25  2  0  0  0
 24 49  1  0  0  0
 25 26  1  0  0  0
 25 50  1  0  0  0
 26 27  2  0  0  0
 26 51  1  0  0  0
 27 52  1  0  0  0
M  END
> <chembl_id>
CHEMBL212551

> <chembl_pref_name>
None

> <i_m_ct_stereo_status>
1

> <s_m_source_file>
sdf/inactives_sanitized.sdf

> <i_m_source_file_index>
32

> <i_lp_mmshare_version>
49012

> <i_f3d_flags>
0

> <s_epik_input>
W2NIXTFbY0hdYyhbQ0gzXSlbY0hdW2NIXWMxUyg9TykoPU8pTjJbQ0gyXVtDSDJdW0NIMl1bQ0BASF0yQyg9TylbTkhdW0NASF0oW0NIXT1PKVtDSDJdYzNbY0hdW2NIXVtjSF1bY0hdW2NIXTM=

> <s_epik_cmdline>
J2VwaWtfcHl0aG9uJywgJy1waHQnLCAnMC41JywgJy1waCcsICc3LjUnLCAnLW50JywgJy1tYScsICcyMDAnLCAnLWltYWUnLCAnPGluZmlsZS5tYWU+JywgJy1vbWFlJywgJzxvdXRmaWxlLm1hZT4n

> <r_lp_tautomer_probability>
1

> <r_epik_Ionization_Penalty>
  0.0029

> <r_epik_Ionization_Penalty_Charging>
  0.0000

> <r_epik_Ionization_Penalty_Neutral>
  0.0029

> <r_epik_State_Penalty>
 -0.0000

> <r_epik_Charging_Adjusted_Penalty>
0

> <i_epik_Tot_Q>
0

> <i_epik_Tot_abs_Q>
0

> <s_lp_Force_Field>
OPLS3e

> <r_lp_Energy>
29.918292

> <b_lp_Chiralities_Consistent>
1

> <s_lp_Variant>
sdf/inactives_sanitized.sdf:32-1

$$$$
sdf/inactives_sanitized.sdf:33
                    3D
 Schrodinger Suite 2020-1.
 92 96  0  0  1  0            999 V2000
   -0.6044    1.0775    0.0437 C   0  0  0  0  0  0
   -2.6730    1.1573   -2.5051 C   0  0  0  0  0  0
    6.4441   -0.0989   -5.0213 N   0  0  0  0  0  0
   -2.6762    1.6815   -1.2084 N   0  0  0  0  0  0
    0.0690   -0.0854    0.0159 N   0  0  0  0  0  0
   -2.1442    0.9690   -0.0311 C   0  0  2  0  0  0
    5.6913   -0.5132   -3.9232 C   0  0  0  0  0  0
   -0.0749    2.1838    0.1587 O   0  0  0  0  0  0
   -3.1643    1.7328   -3.4763 O   0  0  0  0  0  0
   -2.0429   -0.0422   -2.5712 O   0  0  0  0  0  0
    3.4009   -1.7482   -0.6001 N   0  0  0  0  0  0
   -2.8376    1.4479    1.2688 C   0  0  0  0  0  0
    6.2719   -1.1681   -2.8269 C   0  0  0  0  0  0
    4.3137   -0.2619   -3.8965 C   0  0  0  0  0  0
    4.1227   -1.3191   -1.7278 C   0  0  0  0  0  0
    1.5226   -0.2225    0.1198 C   0  0  2  0  0  0
   -1.8534   -0.7149   -3.8093 C   0  0  0  0  0  0
    1.9550   -1.5801   -0.4790 C   0  0  0  0  0  0
   -2.4706    0.6471    2.5376 C   0  0  0  0  0  0
    3.5353   -0.6574   -2.8129 C   0  0  0  0  0  0
    5.4953   -1.5645   -1.7418 C   0  0  0  0  0  0
    1.4897   -0.9606    2.6265 C   0  0  0  0  0  0
    2.0408    0.0150    1.5644 C   0  0  0  0  0  0
   -3.1445    1.1834    3.7907 C   0  0  0  0  0  0
   -0.8632   -1.8524   -3.6220 C   0  0  0  0  0  0
    1.9400   -0.6052    4.0356 C   0  0  0  0  0  0
    6.4164    1.3319   -5.3846 C   0  0  0  0  0  0
    7.7851   -0.6603   -5.2783 C   0  0  0  0  0  0
    0.3060   -1.8868   -4.3859 C   0  0  0  0  0  0
    3.1436   -1.1131    4.5323 C   0  0  0  0  0  0
    1.1529    0.2347    4.8287 C   0  0  0  0  0  0
   -1.1230   -2.8627   -2.6912 C   0  0  0  0  0  0
   -2.5022    2.1547    4.5636 C   0  0  0  0  0  0
   -4.4040    0.7080    4.1654 C   0  0  0  0  0  0
    8.2669   -0.4573   -6.7300 C   0  0  0  0  0  0
    6.8526    1.6026   -6.8400 C   0  0  0  0  0  0
    1.2163   -2.9270   -4.2163 C   0  0  0  0  0  0
   -0.2118   -3.9021   -2.5214 C   0  0  0  0  0  0
    3.5584   -0.7823    5.8198 C   0  0  0  0  0  0
   -3.1179    2.6485    5.7105 C   0  0  0  0  0  0
   -5.0196    1.2030    5.3123 C   0  0  0  0  0  0
    1.5681    0.5649    6.1159 C   0  0  0  0  0  0
    2.7688    0.0549    6.6056 C   0  0  0  0  0  0
   -4.3737    2.1706    6.0795 C   0  0  0  0  0  0
    0.9541   -3.9287   -3.2842 C   0  0  0  0  0  0
    8.2348    1.0169   -7.1436 C   0  0  0  0  0  0
   -3.0690    2.5995   -1.0598 H   0  0  0  0  0  0
   -0.4525   -0.9425   -0.0976 H   0  0  0  0  0  0
   -2.4253   -0.0839   -0.1214 H   0  0  0  0  0  0
    3.9212   -1.8797    0.2555 H   0  0  0  0  0  0
   -2.6266    2.5065    1.4345 H   0  0  0  0  0  0
   -3.9208    1.4105    1.1395 H   0  0  0  0  0  0
    7.3320   -1.3715   -2.7963 H   0  0  0  0  0  0
    3.8305    0.2366   -4.7244 H   0  0  0  0  0  0
    1.9650    0.5480   -0.5168 H   0  0  0  0  0  0
   -2.8025   -1.1142   -4.1693 H   0  0  0  0  0  0
   -1.4818   -0.0219   -4.5667 H   0  0  0  0  0  0
    1.4919   -1.7131   -1.4560 H   0  0  0  0  0  0
    1.5694   -2.4082    0.1160 H   0  0  0  0  0  0
   -2.7299   -0.4049    2.4072 H   0  0  0  0  0  0
   -1.3920    0.6541    2.6957 H   0  0  0  0  0  0
    2.4798   -0.4339   -2.8366 H   0  0  0  0  0  0
    5.9707   -2.0669   -0.9113 H   0  0  0  0  0  0
    0.3995   -0.9812    2.6006 H   0  0  0  0  0  0
    1.8002   -1.9822    2.4032 H   0  0  0  0  0  0
    1.7889    1.0344    1.8614 H   0  0  0  0  0  0
    3.1313   -0.0181    1.5696 H   0  0  0  0  0  0
    5.4076    1.7282   -5.2673 H   0  0  0  0  0  0
    7.0471    1.8836   -4.6855 H   0  0  0  0  0  0
    8.4975   -0.2309   -4.5719 H   0  0  0  0  0  0
    7.7543   -1.7342   -5.0890 H   0  0  0  0  0  0
    0.5141   -1.1091   -5.1066 H   0  0  0  0  0  0
    3.7572   -1.7602    3.9225 H   0  0  0  0  0  0
    0.2233    0.6334    4.4506 H   0  0  0  0  0  0
   -2.0266   -2.8412   -2.0992 H   0  0  0  0  0  0
   -1.5293    2.5275    4.2768 H   0  0  0  0  0  0
   -4.9059   -0.0411    3.5702 H   0  0  0  0  0  0
    9.2862   -0.8332   -6.8242 H   0  0  0  0  0  0
    7.6713   -1.0719   -7.4068 H   0  0  0  0  0  0
    6.1002    1.2159   -7.5291 H   0  0  0  0  0  0
    6.8723    2.6790   -7.0135 H   0  0  0  0  0  0
    2.1242   -2.9537   -4.8011 H   0  0  0  0  0  0
   -0.4068   -4.6829   -1.8011 H   0  0  0  0  0  0
    4.4881   -1.1722    6.2073 H   0  0  0  0  0  0
   -2.6245    3.3990    6.3102 H   0  0  0  0  0  0
   -5.9934    0.8391    5.6056 H   0  0  0  0  0  0
    0.9625    1.2138    6.7312 H   0  0  0  0  0  0
    3.0913    0.3120    7.6038 H   0  0  0  0  0  0
   -4.8515    2.5549    6.9686 H   0  0  0  0  0  0
    1.6631   -4.7322   -3.1501 H   0  0  0  0  0  0
    8.9983    1.5698   -6.5941 H   0  0  0  0  0  0
    8.4720    1.1230   -8.2028 H   0  0  0  0  0  0
  1  5  1  0  0  0
  1  6  1  0  0  0
  1  8  2  0  0  0
  2  4  1  0  0  0
  2  9  2  0  0  0
  2 10  1  0  0  0
  3  7  1  0  0  0
  3 27  1  0  0  0
  3 28  1  0  0  0
  4  6  1  0  0  0
  4 47  1  0  0  0
  5 16  1  0  0  0
  5 48  1  0  0  0
  6 12  1  0  0  0
  6 49  1  0  0  0
  7 13  2  0  0  0
  7 14  1  0  0  0
 10 17  1  0  0  0
 11 18  1  0  0  0
 11 15  1  0  0  0
 11 50  1  0  0  0
 12 19  1  0  0  0
 12 51  1  0  0  0
 12 52  1  0  0  0
 13 21  1  0  0  0
 13 53  1  0  0  0
 14 20  2  0  0  0
 14 54  1  0  0  0
 15 20  1  0  0  0
 15 21  2  0  0  0
 16 18  1  0  0  0
 16 23  1  0  0  0
 16 55  1  0  0  0
 17 25  1  0  0  0
 17 56  1  0  0  0
 17 57  1  0  0  0
 18 58  1  0  0  0
 18 59  1  0  0  0
 19 24  1  0  0  0
 19 60  1  0  0  0
 19 61  1  0  0  0
 20 62  1  0  0  0
 21 63  1  0  0  0
 22 23  1  0  0  0
 22 26  1  0  0  0
 22 64  1  0  0  0
 22 65  1  0  0  0
 23 66  1  0  0  0
 23 67  1  0  0  0
 24 33  2  0  0  0
 24 34  1  0  0  0
 25 29  2  0  0  0
 25 32  1  0  0  0
 26 30  2  0  0  0
 26 31  1  0  0  0
 27 36  1  0  0  0
 27 68  1  0  0  0
 27 69  1  0  0  0
 28 35  1  0  0  0
 28 70  1  0  0  0
 28 71  1  0  0  0
 29 37  1  0  0  0
 29 72  1  0  0  0
 30 39  1  0  0  0
 30 73  1  0  0  0
 31 42  2  0  0  0
 31 74  1  0  0  0
 32 38  2  0  0  0
 32 75  1  0  0  0
 33 40  1  0  0  0
 33 76  1  0  0  0
 34 41  2  0  0  0
 34 77  1  0  0  0
 35 46  1  0  0  0
 35 78  1  0  0  0
 35 79  1  0  0  0
 36 46  1  0  0  0
 36 80  1  0  0  0
 36 81  1  0  0  0
 37 45  2  0  0  0
 37 82  1  0  0  0
 38 45  1  0  0  0
 38 83  1  0  0  0
 39 43  2  0  0  0
 39 84  1  0  0  0
 40 44  2  0  0  0
 40 85  1  0  0  0
 41 44  1  0  0  0
 41 86  1  0  0  0
 42 43  1  0  0  0
 42 87  1  0  0  0
 43 88  1  0  0  0
 44 89  1  0  0  0
 45 90  1  0  0  0
 46 91  1  0  0  0
 46 92  1  0  0  0
M  END
> <chembl_id>
CHEMBL169708

> <chembl_pref_name>
None

> <i_m_ct_stereo_status>
1

> <s_m_source_file>
sdf/inactives_sanitized.sdf

> <i_m_source_file_index>
33

> <i_lp_mmshare_version>
49012

> <i_f3d_flags>
0

> <s_epik_input>
W2NIXTFbY0hdW2NIXVtjSF1bY0hdYzFbQ0gyXU9DKD1PKVtOSF1bQ0BIXShbQ0gyXVtDSDJdYzJbY0hdW2NIXVtjSF1bY0hdW2NIXTIpQyg9TylbTkhdW0NAQEhdKFtDSDJdW0NIMl1jM1tjSF1bY0hdW2NIXVtjSF1bY0hdMylbQ0gyXVtOSF1jKFtjSF1bY0hdNClbY0hdW2NIXWM0TjVbQ0gyXVtDSDJdW0NIMl1bQ0gyXVtDSDJdNQ==

> <s_epik_cmdline>
J2VwaWtfcHl0aG9uJywgJy1waHQnLCAnMC41JywgJy1waCcsICc3LjUnLCAnLW50JywgJy1tYScsICcyMDAnLCAnLWltYWUnLCAnPGluZmlsZS5tYWU+JywgJy1vbWFlJywgJzxvdXRmaWxlLm1hZT4n

> <r_epik_Ionization_Penalty>
  0.0542

> <r_epik_Ionization_Penalty_Charging>
  0.0000

> <r_epik_Ionization_Penalty_Neutral>
  0.0542

> <r_epik_State_Penalty>
  0.0370

> <r_epik_Charging_Adjusted_Penalty>
0.0370200985984665

> <i_epik_Tot_Q>
0

> <i_epik_Tot_abs_Q>
0

> <s_epik_Chemistry_Notes>
This compound has an ester and may undergo hydrolysis at high or low pH.

> <s_lp_Force_Field>
OPLS3e

> <r_lp_Energy>
60.219051

> <b_lp_Chiralities_Consistent>
1

> <s_lp_Variant>
sdf/inactives_sanitized.sdf:33-1

$$$$
sdf/inactives_sanitized.sdf:34
                    3D
 Schrodinger Suite 2020-1.
 76 79  0  0  1  0            999 V2000
   -3.9260    2.6541   -0.8597 C   0  0  0  0  0  0
    5.8989    1.2502   -6.4521 N   0  0  0  0  0  0
   -0.7897    1.1514    0.1201 C   0  0  0  0  0  0
    5.2146    1.0234   -5.2589 C   0  0  0  0  0  0
   -2.9998    2.2851    0.1112 N   0  0  0  0  0  0
   -0.0914    0.0030    0.1251 N   0  0  0  0  0  0
   -4.5038    3.7413   -0.8825 O   0  0  0  0  0  0
   -4.0964    1.6790   -1.7817 O   0  0  0  0  0  0
    3.2918    0.2480   -1.5830 N   0  0  0  0  0  0
   -0.2526    2.2572    0.0215 O   0  0  0  0  0  0
    3.8248    1.1839   -5.1542 C   0  0  0  0  0  0
    5.9251    0.6041   -4.1272 C   0  0  0  0  0  0
   -2.3142    0.9929    0.2633 C   0  0  0  0  0  0
    3.8884    0.5188   -2.8268 C   0  0  0  0  0  0
   -4.9513    1.8660   -2.9042 C   0  0  0  0  0  0
    1.8399    0.1753   -1.4412 C   0  0  0  0  0  0
    3.1666    0.9353   -3.9522 C   0  0  0  0  0  0
    5.2702    0.3581   -2.9240 C   0  0  0  0  0  0
    1.3661   -0.1096    0.0061 C   0  0  2  0  0  0
    1.4707   -1.8040    1.9768 C   0  0  0  0  0  0
   -4.8865    0.6598   -3.8311 C   0  0  0  0  0  0
    2.0141   -3.1465    2.4438 C   0  0  0  0  0  0
    1.8532   -1.4894    0.5150 C   0  0  0  0  0  0
    6.6704    0.1328   -7.0315 C   0  0  0  0  0  0
    5.3018    2.0663   -7.5275 C   0  0  0  0  0  0
    1.2820   -4.3138    2.2098 C   0  0  0  0  0  0
    3.2485   -3.2118    3.0959 C   0  0  0  0  0  0
   -6.0608    0.1899   -4.4246 C   0  0  0  0  0  0
   -3.6654    0.0335   -4.1066 C   0  0  0  0  0  0
    6.3374    2.5900   -8.5447 C   0  0  0  0  0  0
    7.7508    0.5893   -8.0347 C   0  0  0  0  0  0
    3.7494   -4.4421    3.5139 C   0  0  0  0  0  0
   -3.6233   -1.0643   -4.9619 C   0  0  0  0  0  0
   -6.0180   -0.9081   -5.2804 C   0  0  0  0  0  0
    1.7842   -5.5440    2.6266 C   0  0  0  0  0  0
    7.1672    1.4563   -9.1547 C   0  0  0  0  0  0
    3.0152   -5.6023    3.2768 C   0  0  0  0  0  0
   -4.7999   -1.5308   -5.5441 C   0  0  0  0  0  0
   -2.8275    2.9588    0.8433 H   0  0  0  0  0  0
   -0.5946   -0.8654    0.2370 H   0  0  0  0  0  0
    3.8255   -0.3534   -0.9722 H   0  0  0  0  0  0
    3.2356    1.4947   -6.0041 H   0  0  0  0  0  0
    6.9972    0.4763   -4.1695 H   0  0  0  0  0  0
   -2.6788    0.2346   -0.4315 H   0  0  0  0  0  0
   -2.5334    0.6307    1.2683 H   0  0  0  0  0  0
   -5.9751    2.0107   -2.5549 H   0  0  0  0  0  0
   -4.6595    2.7569   -3.4628 H   0  0  0  0  0  0
    1.4150    1.1129   -1.8021 H   0  0  0  0  0  0
    1.4591   -0.5912   -2.1183 H   0  0  0  0  0  0
    2.0958    1.0685   -3.9162 H   0  0  0  0  0  0
    5.8470    0.0404   -2.0671 H   0  0  0  0  0  0
    1.8136    0.6452    0.6581 H   0  0  0  0  0  0
    1.8370   -1.0173    2.6388 H   0  0  0  0  0  0
    0.3868   -1.8030    2.1016 H   0  0  0  0  0  0
    2.9393   -1.5456    0.4269 H   0  0  0  0  0  0
    1.4556   -2.2729   -0.1327 H   0  0  0  0  0  0
    7.1740   -0.4218   -6.2392 H   0  0  0  0  0  0
    5.9774   -0.5657   -7.5035 H   0  0  0  0  0  0
    4.5250    1.4887   -8.0314 H   0  0  0  0  0  0
    4.8149    2.9319   -7.0759 H   0  0  0  0  0  0
    0.3289   -4.2695    1.7031 H   0  0  0  0  0  0
    3.8202   -2.3129    3.2766 H   0  0  0  0  0  0
   -7.0067    0.6719   -4.2236 H   0  0  0  0  0  0
   -2.7499    0.3950   -3.6608 H   0  0  0  0  0  0
    5.8177    3.1219   -9.3423 H   0  0  0  0  0  0
    6.9760    3.3375   -8.0716 H   0  0  0  0  0  0
    8.5495    1.1119   -7.5058 H   0  0  0  0  0  0
    8.2263   -0.2894   -8.4715 H   0  0  0  0  0  0
    4.7030   -4.4968    4.0180 H   0  0  0  0  0  0
   -2.6826   -1.5506   -5.1743 H   0  0  0  0  0  0
   -6.9250   -1.2745   -5.7385 H   0  0  0  0  0  0
    1.2233   -6.4488    2.4449 H   0  0  0  0  0  0
    6.5369    0.8458   -9.8032 H   0  0  0  0  0  0
    7.9631    1.8595   -9.7819 H   0  0  0  0  0  0
    3.4044   -6.5569    3.5991 H   0  0  0  0  0  0
   -4.7671   -2.3820   -6.2082 H   0  0  0  0  0  0
  1  5  1  0  0  0
  1  7  2  0  0  0
  1  8  1  0  0  0
  2  4  1  0  0  0
  2 24  1  0  0  0
  2 25  1  0  0  0
  3 13  1  0  0  0
  3  6  1  0  0  0
  3 10  2  0  0  0
  4 12  2  0  0  0
  4 11  1  0  0  0
  5 13  1  0  0  0
  5 39  1  0  0  0
  6 19  1  0  0  0
  6 40  1  0  0  0
  8 15  1  0  0  0
  9 16  1  0  0  0
  9 14  1  0  0  0
  9 41  1  0  0  0
 11 17  2  0  0  0
 11 42  1  0  0  0
 12 18  1  0  0  0
 12 43  1  0  0  0
 13 44  1  0  0  0
 13 45  1  0  0  0
 14 17  1  0  0  0
 14 18  2  0  0  0
 15 21  1  0  0  0
 15 46  1  0  0  0
 15 47  1  0  0  0
 16 19  1  0  0  0
 16 48  1  0  0  0
 16 49  1  0  0  0
 17 50  1  0  0  0
 18 51  1  0  0  0
 19 23  1  0  0  0
 19 52  1  0  0  0
 20 23  1  0  0  0
 20 22  1  0  0  0
 20 53  1  0  0  0
 20 54  1  0  0  0
 21 28  2  0  0  0
 21 29  1  0  0  0
 22 26  2  0  0  0
 22 27  1  0  0  0
 23 55  1  0  0  0
 23 56  1  0  0  0
 24 31  1  0  0  0
 24 57  1  0  0  0
 24 58  1  0  0  0
 25 30  1  0  0  0
 25 59  1  0  0  0
 25 60  1  0  0  0
 26 35  1  0  0  0
 26 61  1  0  0  0
 27 32  2  0  0  0
 27 62  1  0  0  0
 28 34  1  0  0  0
 28 63  1  0  0  0
 29 33  2  0  0  0
 29 64  1  0  0  0
 30 36  1  0  0  0
 30 65  1  0  0  0
 30 66  1  0  0  0
 31 36  1  0  0  0
 31 67  1  0  0  0
 31 68  1  0  0  0
 32 37  1  0  0  0
 32 69  1  0  0  0
 33 38  1  0  0  0
 33 70  1  0  0  0
 34 38  2  0  0  0
 34 71  1  0  0  0
 35 37  2  0  0  0
 35 72  1  0  0  0
 36 73  1  0  0  0
 36 74  1  0  0  0
 37 75  1  0  0  0
 38 76  1  0  0  0
M  END
> <chembl_id>
CHEMBL170814

> <chembl_pref_name>
None

> <i_m_ct_stereo_status>
1

> <s_m_source_file>
sdf/inactives_sanitized.sdf

> <i_m_source_file_index>
34

> <i_lp_mmshare_version>
49012

> <i_f3d_flags>
0

> <s_epik_input>
W2NIXTFbY0hdW2NIXVtjSF1bY0hdYzFbQ0gyXU9DKD1PKVtOSF1bQ0gyXUMoPU8pW05IXVtDQEBIXShbQ0gyXVtDSDJdYzJbY0hdW2NIXVtjSF1bY0hdW2NIXTIpW0NIMl1bTkhdYyhbY0hdW2NIXTMpW2NIXVtjSF1jM040W0NIMl1bQ0gyXVtDSDJdW0NIMl1bQ0gyXTQ=

> <s_epik_cmdline>
J2VwaWtfcHl0aG9uJywgJy1waHQnLCAnMC41JywgJy1waCcsICc3LjUnLCAnLW50JywgJy1tYScsICcyMDAnLCAnLWltYWUnLCAnPGluZmlsZS5tYWU+JywgJy1vbWFlJywgJzxvdXRmaWxlLm1hZT4n

> <r_epik_Ionization_Penalty>
  0.0539

> <r_epik_Ionization_Penalty_Charging>
  0.0000

> <r_epik_Ionization_Penalty_Neutral>
  0.0539

> <r_epik_State_Penalty>
  0.0368

> <r_epik_Charging_Adjusted_Penalty>
0.0368429127109634

> <i_epik_Tot_Q>
0

> <i_epik_Tot_abs_Q>
0

> <s_epik_Chemistry_Notes>
This compound has an ester and may undergo hydrolysis at high or low pH.

> <s_lp_Force_Field>
OPLS3e

> <r_lp_Energy>
53.215983

> <b_lp_Chiralities_Consistent>
1

> <s_lp_Variant>
sdf/inactives_sanitized.sdf:34-1

$$$$
sdf/inactives_sanitized.sdf:35
                    3D
 Schrodinger Suite 2020-1.
 95 97  0  0  1  0            999 V2000
   -3.9438   -0.5712    2.3592 S   0  0  0  0  0  0
   -2.7333    0.5552    1.7426 N   0  0  1  0  0  0
   -1.9553    0.1732    0.5393 C   0  0  2  0  0  0
   -0.4912    0.6140    0.7660 C   0  0  0  0  0  0
    0.4395   -0.2461    0.3194 N   0  0  0  0  0  0
   -0.2192    1.7038    1.2734 O   0  0  0  0  0  0
    1.8855   -0.0327    0.3075 C   0  0  2  0  0  0
    2.4403   -0.6689   -0.9786 C   0  0  0  0  0  0
    2.5779   -0.5794    1.5875 C   0  0  0  0  0  0
    2.0888   -0.0709   -2.1356 N   0  0  0  0  0  0
    3.1430   -1.6781   -0.9144 O   0  0  0  0  0  0
    2.4687   -0.4927   -3.4985 C   0  0  2  0  0  0
    3.9807   -0.3421   -3.6986 C   0  0  0  0  0  0
    1.6451    0.3307   -4.5281 C   0  0  0  0  0  0
    4.6147   -1.2729   -4.1963 O   0  0  0  0  0  0
    4.6661    0.8976   -3.3264 C   0  0  0  0  0  0
   -2.5799    0.8382   -0.7201 C   0  0  0  0  0  0
    6.0239    0.9201   -3.3726 O   0  0  0  0  0  0
    6.3259    2.1799   -2.9627 C   0  0  0  0  0  0
    5.2519    2.8834   -2.6920 N   0  0  0  0  0  0
    7.7582    2.5953   -2.8676 C   0  0  0  0  0  0
   -5.0601   -0.8434    0.9833 C   0  0  0  0  0  0
   -4.7007    0.1222    3.4072 O   0  0  0  0  0  0
   -3.2712   -1.8460    2.6359 O   0  0  0  0  0  0
   -2.0229    0.2853   -2.0369 C   0  0  0  0  0  0
   -2.6100   -0.8251   -2.5156 N   0  0  0  0  0  0
   -1.0760    0.8517   -2.5807 O   0  0  0  0  0  0
   -2.2087   -1.5509   -3.7244 C   0  0  0  0  0  0
   -2.9716   -1.1614   -5.0251 C   0  0  0  0  0  0
   -4.4974   -1.3380   -4.8339 C   0  0  0  0  0  0
   -2.4991   -2.0884   -6.1679 C   0  0  0  0  0  0
   -2.6775    0.3033   -5.4266 C   0  0  0  0  0  0
    4.1670    2.0453   -2.9302 N   0  0  0  0  0  0
    1.9044    0.0299   -6.0253 C   0  0  0  0  0  0
    1.0905    0.9853   -6.9249 C   0  0  0  0  0  0
    1.6572   -1.4525   -6.3799 C   0  0  0  0  0  0
    8.0896    3.8948   -2.4653 C   0  0  0  0  0  0
    9.4241    4.2821   -2.3738 C   0  0  0  0  0  0
   10.4301    3.3704   -2.6847 C   0  0  0  0  0  0
   10.1129    2.0752   -3.0859 C   0  0  0  0  0  0
    8.7784    1.6881   -3.1772 C   0  0  0  0  0  0
   -6.0832    0.0718    0.7285 C   0  0  0  0  0  0
   -6.9102   -0.1065   -0.3776 C   0  0  0  0  0  0
   -6.7165   -1.1994   -1.2251 C   0  0  0  0  0  0
   -5.6950   -2.1155   -0.9670 C   0  0  0  0  0  0
   -4.8688   -1.9402    0.1391 C   0  0  0  0  0  0
   -7.6057   -1.3762   -2.4426 C   0  0  0  0  0  0
    2.0942    0.0293    2.7822 O   0  0  0  0  0  0
    2.5462    1.3586    3.0083 C   0  0  0  0  0  0
   -3.0011    1.5424    1.7843 H   0  0  0  0  0  0
   -1.9901   -0.9150    0.4489 H   0  0  0  0  0  0
    0.1365   -1.1184   -0.0885 H   0  0  0  0  0  0
    2.0973    1.0335    0.2158 H   0  0  0  0  0  0
    2.3571   -1.6444    1.6787 H   0  0  0  0  0  0
    3.6657   -0.4947    1.5344 H   0  0  0  0  0  0
    1.4592    0.7183   -2.0937 H   0  0  0  0  0  0
    2.1678   -1.5393   -3.5820 H   0  0  0  0  0  0
    0.5881    0.1351   -4.3567 H   0  0  0  0  0  0
    1.7870    1.3977   -4.3454 H   0  0  0  0  0  0
   -2.4350    1.9203   -0.6983 H   0  0  0  0  0  0
   -3.6611    0.7039   -0.7318 H   0  0  0  0  0  0
   -3.3779   -1.2233   -1.9948 H   0  0  0  0  0  0
   -1.1305   -1.4648   -3.8771 H   0  0  0  0  0  0
   -2.3775   -2.6074   -3.5106 H   0  0  0  0  0  0
   -5.0440   -1.1216   -5.7529 H   0  0  0  0  0  0
   -4.8892   -0.6716   -4.0641 H   0  0  0  0  0  0
   -4.7486   -2.3576   -4.5386 H   0  0  0  0  0  0
   -2.6933   -3.1377   -5.9409 H   0  0  0  0  0  0
   -1.4277   -1.9880   -6.3477 H   0  0  0  0  0  0
   -3.0065   -1.8618   -7.1068 H   0  0  0  0  0  0
   -3.1317    0.5550   -6.3858 H   0  0  0  0  0  0
   -1.6062    0.4856   -5.5175 H   0  0  0  0  0  0
   -3.0681    1.0114   -4.6952 H   0  0  0  0  0  0
    2.9538    0.2431   -6.2320 H   0  0  0  0  0  0
    0.3142    0.4714   -7.4922 H   0  0  0  0  0  0
    1.7395    1.4868   -7.6433 H   0  0  0  0  0  0
    0.5903    1.7643   -6.3486 H   0  0  0  0  0  0
    1.0783   -1.9668   -5.6125 H   0  0  0  0  0  0
    2.6034   -1.9839   -6.4859 H   0  0  0  0  0  0
    1.1186   -1.5765   -7.3194 H   0  0  0  0  0  0
    7.3165    4.6092   -2.2216 H   0  0  0  0  0  0
    9.6782    5.2850   -2.0633 H   0  0  0  0  0  0
   11.4653    3.6704   -2.6139 H   0  0  0  0  0  0
   10.8985    1.3733   -3.3247 H   0  0  0  0  0  0
    8.5455    0.6801   -3.4887 H   0  0  0  0  0  0
   -6.2288    0.9268    1.3725 H   0  0  0  0  0  0
   -7.6956    0.6079   -0.5775 H   0  0  0  0  0  0
   -5.5354   -2.9589   -1.6230 H   0  0  0  0  0  0
   -4.0725   -2.6463    0.3231 H   0  0  0  0  0  0
   -7.1380   -2.0143   -3.1937 H   0  0  0  0  0  0
   -7.7939   -0.4135   -2.9197 H   0  0  0  0  0  0
   -8.5657   -1.8063   -2.1560 H   0  0  0  0  0  0
    2.1308    1.7236    3.9474 H   0  0  0  0  0  0
    2.2372    2.0480    2.2236 H   0  0  0  0  0  0
    3.6333    1.3943    3.0906 H   0  0  0  0  0  0
  1 24  2  0  0  0
  1  2  1  0  0  0
  1 22  1  0  0  0
  1 23  2  0  0  0
  2  3  1  0  0  0
  2 50  1  0  0  0
  3  4  1  0  0  0
  3 17  1  0  0  0
  3 51  1  0  0  0
  4  5  1  0  0  0
  4  6  2  0  0  0
  5  7  1  0  0  0
  5 52  1  0  0  0
  7  8  1  0  0  0
  7  9  1  0  0  0
  7 53  1  0  0  0
  8 10  1  0  0  0
  8 11  2  0  0  0
  9 48  1  0  0  0
  9 54  1  0  0  0
  9 55  1  0  0  0
 10 12  1  0  0  0
 10 56  1  0  0  0
 12 13  1  0  0  0
 12 14  1  0  0  0
 12 57  1  0  0  0
 13 15  2  0  0  0
 13 16  1  0  0  0
 14 34  1  0  0  0
 14 58  1  0  0  0
 14 59  1  0  0  0
 16 33  2  0  0  0
 16 18  1  0  0  0
 17 25  1  0  0  0
 17 60  1  0  0  0
 17 61  1  0  0  0
 18 19  1  0  0  0
 19 20  2  0  0  0
 19 21  1  0  0  0
 20 33  1  0  0  0
 21 37  2  0  0  0
 21 41  1  0  0  0
 22 42  2  0  0  0
 22 46  1  0  0  0
 25 26  1  0  0  0
 25 27  2  0  0  0
 26 28  1  0  0  0
 26 62  1  0  0  0
 28 29  1  0  0  0
 28 63  1  0  0  0
 28 64  1  0  0  0
 29 30  1  0  0  0
 29 31  1  0  0  0
 29 32  1  0  0  0
 30 65  1  0  0  0
 30 66  1  0  0  0
 30 67  1  0  0  0
 31 68  1  0  0  0
 31 69  1  0  0  0
 31 70  1  0  0  0
 32 71  1  0  0  0
 32 72  1  0  0  0
 32 73  1  0  0  0
 34 35  1  0  0  0
 34 36  1  0  0  0
 34 74  1  0  0  0
 35 75  1  0  0  0
 35 76  1  0  0  0
 35 77  1  0  0  0
 36 78  1  0  0  0
 36 79  1  0  0  0
 36 80  1  0  0  0
 37 38  1  0  0  0
 37 81  1  0  0  0
 38 39  2  0  0  0
 38 82  1  0  0  0
 39 40  1  0  0  0
 39 83  1  0  0  0
 40 41  2  0  0  0
 40 84  1  0  0  0
 41 85  1  0  0  0
 42 43  1  0  0  0
 42 86  1  0  0  0
 43 44  2  0  0  0
 43 87  1  0  0  0
 44 45  1  0  0  0
 44 47  1  0  0  0
 45 46  2  0  0  0
 45 88  1  0  0  0
 46 89  1  0  0  0
 47 90  1  0  0  0
 47 91  1  0  0  0
 47 92  1  0  0  0
 48 49  1  0  0  0
 49 93  1  0  0  0
 49 94  1  0  0  0
 49 95  1  0  0  0
M  END
> <chembl_id>
CHEMBL377532

> <chembl_pref_name>
None

> <i_m_ct_stereo_status>
1

> <s_m_source_file>
sdf/inactives_sanitized.sdf

> <i_m_source_file_index>
35

> <i_lp_mmshare_version>
49012

> <i_f3d_flags>
0

> <s_epik_input>
W2NIXTFbY0hdYyhbQ0gzXSlbY0hdW2NIXWMxUyg9TykoPU8pW05IXVtDQEBIXShbQ0gyXUMoPU8pW05IXVtDSDJdQyhbQ0gzXSkoW0NIM10pW0NIM10pQyg9TylbTkhdW0NAQEhdKFtDSDJdT1tDSDNdKUMoPU8pW05IXVtDQEBIXShbQ0gyXVtDSF0oW0NIM10pW0NIM10pQyg9TyljMm9jKG5uMiktYzNbY0hdW2NIXVtjSF1bY0hdW2NIXTM=

> <s_epik_cmdline>
J2VwaWtfcHl0aG9uJywgJy1waHQnLCAnMC41JywgJy1waCcsICc3LjUnLCAnLW50JywgJy1tYScsICcyMDAnLCAnLWltYWUnLCAnPGluZmlsZS5tYWU+JywgJy1vbWFlJywgJzxvdXRmaWxlLm1hZT4n

> <r_lp_tautomer_probability>
1

> <r_epik_Ionization_Penalty>
  0.0010

> <r_epik_Ionization_Penalty_Charging>
  0.0000

> <r_epik_Ionization_Penalty_Neutral>
  0.0010

> <r_epik_State_Penalty>
 -0.0000

> <r_epik_Charging_Adjusted_Penalty>
0

> <i_epik_Tot_Q>
0

> <i_epik_Tot_abs_Q>
0

> <s_lp_Force_Field>
OPLS3e

> <r_lp_Energy>
28.871471

> <b_lp_Chiralities_Consistent>
1

> <s_lp_Variant>
sdf/inactives_sanitized.sdf:35-1

$$$$
sdf/inactives_sanitized.sdf:36
                    3D
 Schrodinger Suite 2020-1.
 28 29  0  0  1  0            999 V2000
   -2.7354    4.9303    2.2044 C   0  0  0  0  0  0
   -2.6347    5.8232    1.1477 C   0  0  0  0  0  0
   -1.9878    5.4131   -0.0123 C   0  0  0  0  0  0
   -2.2405    3.6726    2.1644 N   0  0  0  0  0  0
   -1.5990    3.2372    1.0328 C   0  0  0  0  0  0
   -1.4384    4.1010   -0.1013 C   0  0  0  0  0  0
   -0.7594    3.6176   -1.2603 C   0  0  0  0  0  0
   -0.2859    2.3074   -1.2763 C   0  0  0  0  0  0
   -0.4358    1.4525   -0.1882 C   0  0  0  0  0  0
   -1.0848    1.8999    0.9748 C   0  0  0  0  0  0
   -1.2106    1.1076    1.9701 O   0  5  0  0  0  0
   -0.5366    4.4619   -2.4481 N   0  3  0  0  0  0
   -0.9101    4.0291   -3.5337 O   0  0  0  0  0  0
    0.0362    5.5360   -2.2963 O   0  5  0  0  0  0
    0.1295    0.0379   -0.3093 C   0  0  0  0  0  0
    1.4357   -0.0387    0.3266 N   0  0  2  0  0  0
    2.0038   -1.3619    0.1256 C   0  0  0  0  0  0
    3.3541   -1.3901    0.7095 C   0  0  0  0  0  0
    4.4165   -1.4139    1.1687 N   0  0  0  0  0  0
   -3.2316    5.2188    3.1192 H   0  0  0  0  0  0
   -3.0517    6.8166    1.2242 H   0  0  0  0  0  0
   -1.9138    6.0976   -0.8435 H   0  0  0  0  0  0
    0.2258    1.9493   -2.1589 H   0  0  0  0  0  0
   -0.5551   -0.6694    0.1612 H   0  0  0  0  0  0
    0.2086   -0.2403   -1.3617 H   0  0  0  0  0  0
    1.2990    0.0936    1.3192 H   0  0  0  0  0  0
    1.4042   -2.1258    0.6223 H   0  0  0  0  0  0
    2.0916   -1.6005   -0.9352 H   0  0  0  0  0  0
  1  2  2  0  0  0
  1  4  1  0  0  0
  1 20  1  0  0  0
  2  3  1  0  0  0
  2 21  1  0  0  0
  3  6  2  0  0  0
  3 22  1  0  0  0
  4  5  2  0  0  0
  5  6  1  0  0  0
  5 10  1  0  0  0
  6  7  1  0  0  0
  7  8  2  0  0  0
  7 12  1  0  0  0
  8  9  1  0  0  0
  8 23  1  0  0  0
  9 10  2  0  0  0
  9 15  1  0  0  0
 10 11  1  0  0  0
 12 13  2  0  0  0
 12 14  1  0  0  0
 15 16  1  0  0  0
 15 24  1  0  0  0
 15 25  1  0  0  0
 16 17  1  0  0  0
 16 26  1  0  0  0
 17 18  1  0  0  0
 17 27  1  0  0  0
 17 28  1  0  0  0
 18 19  3  0  0  0
M  CHG  3  11  -1  12   1  14  -1
M  END
> <chembl_id>
CHEMBL2312216

> <chembl_pref_name>
None

> <s_m_source_file>
sdf/inactives_sanitized.sdf

> <i_m_source_file_index>
36

> <i_lp_mmshare_version>
49012

> <i_m_ct_stereo_status>
1

> <i_f3d_flags>
0

> <s_epik_input>
bjFbY0hdW2NIXVtjSF1jKGMxMiljKFtOK10oPU8pW08tXSlbY0hdYyhjMltPSF0pW0NIMl1bTkhdW0NIMl1DI04=

> <s_epik_cmdline>
J2VwaWtfcHl0aG9uJywgJy1waHQnLCAnMC41JywgJy1waCcsICc3LjUnLCAnLW50JywgJy1tYScsICcyMDAnLCAnLWltYWUnLCAnPGluZmlsZS5tYWU+JywgJy1vbWFlJywgJzxvdXRmaWxlLm1hZT4n

> <r_lp_tautomer_probability>
1

> <r_epik_Ionization_Penalty>
  0.1104

> <r_epik_Ionization_Penalty_Charging>
  0.0001

> <r_epik_Ionization_Penalty_Neutral>
  0.1103

> <r_epik_State_Penalty>
 -0.0000

> <r_epik_Charging_Adjusted_Penalty>
0.000111779294619076

> <i_epik_Tot_Q>
-1

> <i_epik_Tot_abs_Q>
3

> <s_lp_Force_Field>
OPLS3e

> <r_lp_Energy>
34.855476

> <b_lp_Chiralities_Consistent>
1

> <s_lp_Variant>
sdf/inactives_sanitized.sdf:36-1

$$$$
sdf/inactives_sanitized.sdf:37
                    3D
 Schrodinger Suite 2020-1.
 20 21  0  0  1  0            999 V2000
   -2.1403    3.7044    0.0000 C   0  0  0  0  0  0
   -0.7579    3.7332   -0.0000 C   0  0  0  0  0  0
   -0.0253    2.5526   -0.0000 C   0  0  0  0  0  0
   -2.8090    2.4905    0.0000 C   0  0  0  0  0  0
   -2.0987    1.2516    0.0000 C   0  0  0  0  0  0
   -0.6559    1.2651    0.0000 C   0  0  0  0  0  0
    0.0598   -0.0009    0.0000 C   0  0  0  0  0  0
   -0.6968   -1.1810    0.0000 C   0  0  0  0  0  0
   -2.0787   -1.1842    0.0000 C   0  0  0  0  0  0
   -2.7921    0.0029    0.0000 C   0  0  0  0  0  0
   -4.0638   -0.0712    0.0000 O   0  5  0  0  0  0
    1.5506   -0.1469    0.0000 N   0  3  0  0  0  0
    2.0275   -1.2796   -0.0000 O   0  0  0  0  0  0
    2.2817    0.8331    0.0000 O   0  5  0  0  0  0
   -2.6991    4.6287    0.0000 H   0  0  0  0  0  0
   -0.2438    4.6833   -0.0000 H   0  0  0  0  0  0
    1.0405    2.6771   -0.0000 H   0  0  0  0  0  0
   -3.8896    2.4932    0.0000 H   0  0  0  0  0  0
   -0.2108   -2.1456    0.0000 H   0  0  0  0  0  0
   -2.5959   -2.1337    0.0000 H   0  0  0  0  0  0
  1  2  2  0  0  0
  1  4  1  0  0  0
  1 15  1  0  0  0
  2  3  1  0  0  0
  2 16  1  0  0  0
  3  6  2  0  0  0
  3 17  1  0  0  0
  4  5  2  0  0  0
  4 18  1  0  0  0
  5  6  1  0  0  0
  5 10  1  0  0  0
  6  7  1  0  0  0
  7  8  2  0  0  0
  7 12  1  0  0  0
  8  9  1  0  0  0
  8 19  1  0  0  0
  9 10  2  0  0  0
  9 20  1  0  0  0
 10 11  1  0  0  0
 12 13  2  0  0  0
 12 14  1  0  0  0
M  CHG  3  11  -1  12   1  14  -1
M  END
> <chembl_id>
CHEMBL2312200

> <chembl_pref_name>
None

> <s_m_source_file>
sdf/inactives_sanitized.sdf

> <i_m_source_file_index>
37

> <i_lp_mmshare_version>
49012

> <i_m_ct_stereo_status>
1

> <i_f3d_flags>
0

> <s_epik_input>
W2NIXTFbY0hdW2NIXVtjSF1jKGMxMiljKFtOK10oPU8pW08tXSlbY0hdW2NIXWMyW09IXQ==

> <s_epik_cmdline>
J2VwaWtfcHl0aG9uJywgJy1waHQnLCAnMC41JywgJy1waCcsICc3LjUnLCAnLW50JywgJy1tYScsICcyMDAnLCAnLWltYWUnLCAnPGluZmlsZS5tYWU+JywgJy1vbWFlJywgJzxvdXRmaWxlLm1hZT4n

> <r_lp_tautomer_probability>
1

> <r_epik_Ionization_Penalty>
  0.0055

> <r_epik_Ionization_Penalty_Charging>
  0.0055

> <r_epik_Ionization_Penalty_Neutral>
  0.0000

> <r_epik_State_Penalty>
 -0.0000

> <r_epik_Charging_Adjusted_Penalty>
0.00546900751127761

> <i_epik_Tot_Q>
-1

> <i_epik_Tot_abs_Q>
3

> <s_lp_Force_Field>
OPLS3e

> <r_lp_Energy>
26.973378

> <b_lp_Chiralities_Consistent>
1

> <s_lp_Variant>
sdf/inactives_sanitized.sdf:37-1

$$$$
sdf/inactives_sanitized.sdf:38
                    3D
 Schrodinger Suite 2020-1.
 37 39  0  0  1  0            999 V2000
   -0.4628   -3.3641    0.6158 C   0  0  0  0  0  0
   -1.8307   -3.5804    0.6266 C   0  0  0  0  0  0
   -2.6759   -2.5120    0.3544 C   0  0  0  0  0  0
    0.0932   -2.1633    0.3448 N   0  0  0  0  0  0
   -0.7091   -1.0839    0.0824 C   0  0  0  0  0  0
   -2.1426   -1.2152    0.0806 C   0  0  0  0  0  0
   -2.9556   -0.0723   -0.2264 C   0  0  0  0  0  0
   -2.3208    1.1188   -0.5773 C   0  0  0  0  0  0
   -0.9417    1.2402   -0.5858 C   0  0  0  0  0  0
   -0.0969    0.1786   -0.2443 C   0  0  0  0  0  0
   -4.4394   -0.0931   -0.1935 N   0  3  0  0  0  0
   -5.0441    0.6089   -0.9992 O   0  0  0  0  0  0
   -5.0086   -0.7592    0.6644 O   0  5  0  0  0  0
    1.2920    0.3662   -0.2211 N   0  0  0  0  0  0
    1.9866    0.1905    1.0742 C   0  0  0  0  0  0
    3.5014   -0.0586    0.9063 C   0  0  0  0  0  0
    4.1735    1.1082    0.1683 C   0  0  0  0  0  0
    3.4393    1.2801   -1.1689 C   0  0  0  0  0  0
    1.9241    1.4872   -0.9520 C   0  0  0  0  0  0
    5.6882    0.9090   -0.0085 C   0  0  0  0  0  0
    0.2225   -4.1741    0.8190 H   0  0  0  0  0  0
   -2.2319   -4.5621    0.8322 H   0  0  0  0  0  0
   -3.7369   -2.6991    0.3326 H   0  0  0  0  0  0
   -2.9086    1.9910   -0.8252 H   0  0  0  0  0  0
   -0.5380    2.2089   -0.8401 H   0  0  0  0  0  0
    1.8139    1.0822    1.6797 H   0  0  0  0  0  0
    1.5702   -0.6384    1.6443 H   0  0  0  0  0  0
    3.9709   -0.1951    1.8813 H   0  0  0  0  0  0
    3.6718   -1.0057    0.3909 H   0  0  0  0  0  0
    4.0058    2.0127    0.7566 H   0  0  0  0  0  0
    3.8608    2.1295   -1.7081 H   0  0  0  0  0  0
    3.6112    0.4301   -1.8318 H   0  0  0  0  0  0
    1.4557    1.5765   -1.9332 H   0  0  0  0  0  0
    1.7358    2.4214   -0.4199 H   0  0  0  0  0  0
    5.9074    0.0132   -0.5909 H   0  0  0  0  0  0
    6.1873    0.8083    0.9557 H   0  0  0  0  0  0
    6.1395    1.7579   -0.5232 H   0  0  0  0  0  0
  1  2  2  0  0  0
  1  4  1  0  0  0
  1 21  1  0  0  0
  2  3  1  0  0  0
  2 22  1  0  0  0
  3  6  2  0  0  0
  3 23  1  0  0  0
  4  5  2  0  0  0
  5  6  1  0  0  0
  5 10  1  0  0  0
  6  7  1  0  0  0
  7  8  2  0  0  0
  7 11  1  0  0  0
  8  9  1  0  0  0
  8 24  1  0  0  0
  9 10  2  0  0  0
  9 25  1  0  0  0
 10 14  1  0  0  0
 11 12  2  0  0  0
 11 13  1  0  0  0
 14 15  1  0  0  0
 14 19  1  0  0  0
 15 16  1  0  0  0
 15 26  1  0  0  0
 15 27  1  0  0  0
 16 17  1  0  0  0
 16 28  1  0  0  0
 16 29  1  0  0  0
 17 18  1  0  0  0
 17 20  1  0  0  0
 17 30  1  0  0  0
 18 19  1  0  0  0
 18 31  1  0  0  0
 18 32  1  0  0  0
 19 33  1  0  0  0
 19 34  1  0  0  0
 20 35  1  0  0  0
 20 36  1  0  0  0
 20 37  1  0  0  0
M  CHG  2  11   1  13  -1
M  END
> <chembl_id>
CHEMBL2312204

> <chembl_pref_name>
None

> <s_m_source_file>
sdf/inactives_sanitized.sdf

> <i_m_source_file_index>
38

> <i_lp_mmshare_version>
49012

> <i_m_ct_stereo_status>
1

> <i_f3d_flags>
0

> <s_epik_input>
bjFbY0hdW2NIXVtjSF1jKGMxMiljKFtOK10oPU8pW08tXSlbY0hdW2NIXWMyTjNbQ0gyXVtDSDJdW0NIXShbQ0gzXSlbQ0gyXVtDSDJdMw==

> <s_epik_cmdline>
J2VwaWtfcHl0aG9uJywgJy1waHQnLCAnMC41JywgJy1waCcsICc3LjUnLCAnLW50JywgJy1tYScsICcyMDAnLCAnLWltYWUnLCAnPGluZmlsZS5tYWU+JywgJy1vbWFlJywgJzxvdXRmaWxlLm1hZT4n

> <r_lp_tautomer_probability>
1

> <r_epik_Ionization_Penalty>
  0.0000

> <r_epik_Ionization_Penalty_Charging>
  0.0000

> <r_epik_Ionization_Penalty_Neutral>
  0.0000

> <r_epik_State_Penalty>
 -0.0000

> <r_epik_Charging_Adjusted_Penalty>
0

> <i_epik_Tot_Q>
0

> <i_epik_Tot_abs_Q>
2

> <s_lp_Force_Field>
OPLS3e

> <r_lp_Energy>
46.306541

> <b_lp_Chiralities_Consistent>
1

> <s_lp_Variant>
sdf/inactives_sanitized.sdf:38-1

$$$$
sdf/inactives_sanitized.sdf:39
                    3D
 Schrodinger Suite 2020-1.
 31 32  0  0  1  0            999 V2000
   -1.2468    5.4636    2.1693 C   0  0  0  0  0  0
   -1.6750    6.1024    1.0149 C   0  0  0  0  0  0
   -1.7664    5.3657   -0.1603 C   0  0  0  0  0  0
   -0.9050    4.1559    2.2118 N   0  0  0  0  0  0
   -0.9826    3.4027    1.0682 C   0  0  0  0  0  0
   -1.4293    3.9808   -0.1664 C   0  0  0  0  0  0
   -1.5027    3.1655   -1.3362 C   0  0  0  0  0  0
   -1.1162    1.8291   -1.2614 C   0  0  0  0  0  0
   -0.6712    1.2528   -0.0754 C   0  0  0  0  0  0
   -0.6056    2.0201    1.0991 C   0  0  0  0  0  0
   -0.1965    1.4764    2.1808 O   0  5  0  0  0  0
   -1.9766    3.6903   -2.6301 N   0  3  0  0  0  0
   -1.2536    3.5319   -3.6086 O   0  0  0  0  0  0
   -3.0789    4.2272   -2.6688 O   0  5  0  0  0  0
   -0.2758   -0.2252   -0.0991 C   0  0  0  0  0  0
    1.2313   -0.4700    0.0768 N   0  3  0  0  0  0
    2.1010    0.0624   -1.0732 C   0  0  0  0  0  0
    3.5710   -0.2602   -0.7839 C   0  0  0  0  0  0
   -1.1652    6.0083    3.0982 H   0  0  0  0  0  0
   -1.9310    7.1517    1.0287 H   0  0  0  0  0  0
   -2.0887    5.8575   -1.0654 H   0  0  0  0  0  0
   -1.1699    1.2220   -2.1546 H   0  0  0  0  0  0
   -0.7343   -0.7742    0.7246 H   0  0  0  0  0  0
   -0.5358   -0.7237   -1.0347 H   0  0  0  0  0  0
    1.5225   -0.0316    0.9398 H   0  0  0  0  0  0
    1.7339   -0.4258   -1.9771 H   0  0  0  0  0  0
    1.9154    1.1364   -1.1209 H   0  0  0  0  0  0
    4.2111    0.1077   -1.5860 H   0  0  0  0  0  0
    3.7350   -1.3352   -0.6981 H   0  0  0  0  0  0
    3.9053    0.2071    0.1433 H   0  0  0  0  0  0
    1.3863   -1.4638    0.1681 H   0  0  0  0  0  0
  1  2  2  0  0  0
  1  4  1  0  0  0
  1 19  1  0  0  0
  2  3  1  0  0  0
  2 20  1  0  0  0
  3  6  2  0  0  0
  3 21  1  0  0  0
  4  5  2  0  0  0
  5  6  1  0  0  0
  5 10  1  0  0  0
  6  7  1  0  0  0
  7  8  2  0  0  0
  7 12  1  0  0  0
  8  9  1  0  0  0
  8 22  1  0  0  0
  9 10  2  0  0  0
  9 15  1  0  0  0
 10 11  1  0  0  0
 12 13  2  0  0  0
 12 14  1  0  0  0
 15 16  1  0  0  0
 15 23  1  0  0  0
 15 24  1  0  0  0
 16 17  1  0  0  0
 16 25  1  0  0  0
 16 31  1  0  0  0
 17 18  1  0  0  0
 17 26  1  0  0  0
 17 27  1  0  0  0
 18 28  1  0  0  0
 18 29  1  0  0  0
 18 30  1  0  0  0
M  CHG  4  11  -1  12   1  14  -1  16   1
M  END
> <chembl_id>
CHEMBL2312213

> <chembl_pref_name>
None

> <s_m_source_file>
sdf/inactives_sanitized.sdf

> <i_m_source_file_index>
39

> <i_lp_mmshare_version>
49012

> <i_m_ct_stereo_status>
1

> <i_f3d_flags>
0

> <s_epik_input>
bjFbY0hdW2NIXVtjSF1jKGMxMiljKFtOK10oPU8pW08tXSlbY0hdYyhjMltPSF0pW0NIMl1bTkhdW0NIMl1bQ0gzXQ==

> <s_epik_cmdline>
J2VwaWtfcHl0aG9uJywgJy1waHQnLCAnMC41JywgJy1waCcsICc3LjUnLCAnLW50JywgJy1tYScsICcyMDAnLCAnLWltYWUnLCAnPGluZmlsZS5tYWU+JywgJy1vbWFlJywgJzxvdXRmaWxlLm1hZT4n

> <r_epik_Ionization_Penalty>
  0.0443

> <r_epik_Ionization_Penalty_Charging>
  0.0443

> <r_epik_Ionization_Penalty_Neutral>
  0.0000

> <r_epik_State_Penalty>
  0.0375

> <r_epik_Charging_Adjusted_Penalty>
0.0817254436851851

> <i_epik_Tot_Q>
0

> <i_epik_Tot_abs_Q>
4

> <s_lp_Force_Field>
OPLS3e

> <r_lp_Energy>
28.407409

> <b_lp_Chiralities_Consistent>
1

> <s_lp_Variant>
sdf/inactives_sanitized.sdf:39-1

$$$$
sdf/inactives_sanitized.sdf:40
                    3D
 Schrodinger Suite 2020-1.
 59 61  0  0  1  0            999 V2000
   -8.3423   -0.0462    0.0115 C   0  0  0  0  0  0
   -8.5803   -1.5881   -0.1221 C   0  0  0  0  0  0
  -10.0637   -2.0251   -0.1087 C   0  0  0  0  0  0
  -10.7841   -1.5160    1.1549 C   0  0  0  0  0  0
  -10.5936   -0.0013    1.3674 C   0  0  0  0  0  0
   -9.1002    0.3993    1.3094 C   0  0  0  0  0  0
   -0.5359   -0.6967   -1.0512 C   0  0  0  0  0  0
    0.1655    0.0891   -0.1149 C   0  0  0  0  0  0
   -0.5849    0.9716    0.6858 C   0  0  0  0  0  0
   -1.9218   -0.6076   -1.1882 C   0  0  0  0  0  0
   -2.6395    0.2732   -0.3834 C   0  0  0  0  0  0
   -1.9706    1.0578    0.5543 C   0  0  0  0  0  0
   -2.6490    1.9399    1.3823 O   0  0  0  0  0  0
   -4.0329    2.0884    1.3411 C   0  0  0  0  0  0
   -4.7844    1.2742    0.3403 C   0  0  0  0  0  0
   -4.0910    0.4254   -0.4602 C   0  0  0  0  0  0
    1.5807   -0.0055    0.0169 N   0  0  0  0  0  0
    2.3468   -1.0594   -0.6562 C   0  0  0  0  0  0
    2.8125   -0.6629   -2.0647 C   0  0  0  0  0  0
    2.3415    0.9440    0.8359 C   0  0  0  0  0  0
    2.4709    0.5124    2.3042 C   0  0  0  0  0  0
   -6.2299    1.3881    0.2206 C   0  0  0  0  0  0
   -6.8881    0.2115    0.0905 N   0  0  0  0  0  0
   -6.8047    2.4772    0.2612 O   0  0  0  0  0  0
   -8.9418    0.6900   -1.2419 C   0  0  0  0  0  0
   -8.7229    0.1439   -2.4543 N   0  0  0  0  0  0
   -9.4514    1.8074   -1.1312 O   0  0  0  0  0  0
   -9.0839    0.7676   -3.7246 C   0  0  0  0  0  0
   -8.2968    1.9811   -4.0071 C   0  0  0  0  0  0
   -7.6783    2.9335   -4.2291 N   0  0  0  0  0  0
   -4.4882    2.8912    2.1558 O   0  0  0  0  0  0
   -8.0866   -1.9732   -1.0163 H   0  0  0  0  0  0
   -8.0131   -2.1063    0.6534 H   0  0  0  0  0  0
  -10.5756   -1.6538   -0.9973 H   0  0  0  0  0  0
  -10.1295   -3.1126   -0.1577 H   0  0  0  0  0  0
  -11.8471   -1.7534    1.0994 H   0  0  0  0  0  0
  -10.4001   -2.0503    2.0254 H   0  0  0  0  0  0
  -11.1589    0.5467    0.6126 H   0  0  0  0  0  0
  -11.0171    0.2928    2.3285 H   0  0  0  0  0  0
   -8.5621    0.0238    2.1815 H   0  0  0  0  0  0
   -8.9985    1.4758    1.4564 H   0  0  0  0  0  0
   -0.0219   -1.3847   -1.7041 H   0  0  0  0  0  0
   -0.1123    1.5937    1.4302 H   0  0  0  0  0  0
   -2.4291   -1.2208   -1.9189 H   0  0  0  0  0  0
   -4.6170   -0.1648   -1.1993 H   0  0  0  0  0  0
    3.2129   -1.3167   -0.0445 H   0  0  0  0  0  0
    1.7664   -1.9809   -0.7036 H   0  0  0  0  0  0
    3.3757   -1.4741   -2.5258 H   0  0  0  0  0  0
    3.4623    0.2123   -2.0352 H   0  0  0  0  0  0
    1.9704   -0.4346   -2.7183 H   0  0  0  0  0  0
    3.3357    1.0705    0.4045 H   0  0  0  0  0  0
    1.8941    1.9365    0.7796 H   0  0  0  0  0  0
    3.0373    1.2504    2.8722 H   0  0  0  0  0  0
    2.9933   -0.4407    2.3926 H   0  0  0  0  0  0
    1.4967    0.4079    2.7821 H   0  0  0  0  0  0
   -6.3223   -0.6219    0.1575 H   0  0  0  0  0  0
   -8.2044   -0.7202   -2.5098 H   0  0  0  0  0  0
   -8.9086    0.0564   -4.5318 H   0  0  0  0  0  0
  -10.1451    1.0211   -3.7449 H   0  0  0  0  0  0
  1  2  1  0  0  0
  1  6  1  0  0  0
  1 23  1  0  0  0
  1 25  1  0  0  0
  2  3  1  0  0  0
  2 32  1  0  0  0
  2 33  1  0  0  0
  3  4  1  0  0  0
  3 34  1  0  0  0
  3 35  1  0  0  0
  4  5  1  0  0  0
  4 36  1  0  0  0
  4 37  1  0  0  0
  5  6  1  0  0  0
  5 38  1  0  0  0
  5 39  1  0  0  0
  6 40  1  0  0  0
  6 41  1  0  0  0
  7  8  1  0  0  0
  7 10  2  0  0  0
  7 42  1  0  0  0
  8  9  2  0  0  0
  8 17  1  0  0  0
  9 12  1  0  0  0
  9 43  1  0  0  0
 10 11  1  0  0  0
 10 44  1  0  0  0
 11 12  2  0  0  0
 11 16  1  0  0  0
 12 13  1  0  0  0
 13 14  1  0  0  0
 14 15  1  0  0  0
 14 31  2  0  0  0
 15 16  2  0  0  0
 15 22  1  0  0  0
 16 45  1  0  0  0
 17 18  1  0  0  0
 17 20  1  0  0  0
 18 19  1  0  0  0
 18 46  1  0  0  0
 18 47  1  0  0  0
 19 48  1  0  0  0
 19 49  1  0  0  0
 19 50  1  0  0  0
 20 21  1  0  0  0
 20 51  1  0  0  0
 20 52  1  0  0  0
 21 53  1  0  0  0
 21 54  1  0  0  0
 21 55  1  0  0  0
 22 23  1  0  0  0
 22 24  2  0  0  0
 23 56  1  0  0  0
 25 26  1  0  0  0
 25 27  2  0  0  0
 26 28  1  0  0  0
 26 57  1  0  0  0
 28 29  1  0  0  0
 28 58  1  0  0  0
 28 59  1  0  0  0
 29 30  3  0  0  0
M  END
> <chembl_id>
CHEMBL2203961

> <chembl_pref_name>
None

> <s_m_source_file>
sdf/inactives_sanitized.sdf

> <i_m_source_file_index>
40

> <i_lp_mmshare_version>
49012

> <i_m_ct_stereo_status>
1

> <i_f3d_flags>
0

> <s_epik_input>
W0NIMl0xW0NIMl1bQ0gyXVtDSDJdW0NIMl1DMShDKD1PKVtOSF1bQ0gyXUMjTilbTkhdQyg9TyljKFtjSF0yKWMoPU8pb2MoYzIzKVtjSF1jKFtjSF1bY0hdMylOKFtDSDJdW0NIM10pW0NIMl1bQ0gzXQ==

> <s_epik_cmdline>
J2VwaWtfcHl0aG9uJywgJy1waHQnLCAnMC41JywgJy1waCcsICc3LjUnLCAnLW50JywgJy1tYScsICcyMDAnLCAnLWltYWUnLCAnPGluZmlsZS5tYWU+JywgJy1vbWFlJywgJzxvdXRmaWxlLm1hZT4n

> <r_lp_tautomer_probability>
1

> <r_epik_Ionization_Penalty>
  0.0000

> <r_epik_Ionization_Penalty_Charging>
  0.0000

> <r_epik_Ionization_Penalty_Neutral>
  0.0000

> <r_epik_State_Penalty>
 -0.0000

> <r_epik_Charging_Adjusted_Penalty>
7.89446961475705e-11

> <i_epik_Tot_Q>
0

> <i_epik_Tot_abs_Q>
0

> <s_epik_Chemistry_Notes>
This compound has an imine and may undergo hydrolysis.

> <s_lp_Force_Field>
OPLS3e

> <r_lp_Energy>
63.104573

> <b_lp_Chiralities_Consistent>
1

> <s_lp_Variant>
sdf/inactives_sanitized.sdf:40-1

$$$$
sdf/inactives_sanitized.sdf:41
                    3D
 Schrodinger Suite 2020-1.
 74 76  0  0  1  0            999 V2000
   -2.7292    2.2633   -1.2852 C   0  0  0  0  0  0
   -2.1940    1.7094    0.0417 C   0  0  2  0  0  0
   -0.0245    0.7406   -0.8775 C   0  0  0  0  0  0
   -0.7306    1.5000   -0.0119 N   0  0  0  0  0  0
   -2.3537    3.7712   -1.6042 C   0  0  0  0  0  0
    2.7935    1.4449   -2.4827 C   0  0  0  0  0  0
    1.4670    0.5208   -0.5222 C   0  0  2  0  0  0
    2.3027    0.3734   -1.7324 N   0  0  0  0  0  0
   -2.8105    4.1682   -2.8065 N   0  0  0  0  0  0
   -3.4501    1.6205   -2.0549 O   0  0  0  0  0  0
   -2.9080    0.4071    0.5090 C   0  0  0  0  0  0
   -0.5106    0.1774   -1.8601 O   0  0  0  0  0  0
    3.4245    1.3113   -3.5315 O   0  0  0  0  0  0
   -1.7327    4.4677   -0.8006 O   0  0  0  0  0  0
    2.5241    2.6393   -1.9063 O   0  0  0  0  0  0
    1.6726   -0.7614    0.3337 C   0  0  0  0  0  0
   -2.6222    5.4980   -3.3840 C   0  0  0  0  0  0
    3.0477    3.8500   -2.4406 C   0  0  0  0  0  0
   -4.2924    0.5960    1.1076 C   0  0  0  0  0  0
   -1.1871    5.8290   -3.7813 C   0  0  0  0  0  0
    2.6820    5.0424   -1.5651 C   0  0  0  0  0  0
    1.0729   -0.7373    1.7626 C   0  0  0  0  0  0
   -4.4326    1.0435    2.4386 C   0  0  0  0  0  0
   -5.4444    0.4766    0.3011 C   0  0  0  0  0  0
    3.5168    6.1629   -1.5681 C   0  0  0  0  0  0
    1.5208    5.0417   -0.7837 C   0  0  0  0  0  0
   -0.5145    5.0242   -4.7062 C   0  0  0  0  0  0
   -0.5548    6.9532   -3.2428 C   0  0  0  0  0  0
    1.6204    0.4240    2.6205 C   0  0  0  0  0  0
    1.2460   -2.1055    2.4562 C   0  0  0  0  0  0
    1.1990    6.1532   -0.0100 C   0  0  0  0  0  0
    3.1968    7.2739   -0.7918 C   0  0  0  0  0  0
   -6.6984    0.7363    0.8379 C   0  0  0  0  0  0
    0.7837    5.3447   -5.0930 C   0  0  0  0  0  0
    0.7422    7.2752   -3.6330 C   0  0  0  0  0  0
   -5.6957    1.2969    2.9571 C   0  0  0  0  0  0
    1.4054    6.4702   -4.5567 C   0  0  0  0  0  0
   -6.8236    1.1388    2.1617 C   0  0  0  0  0  0
    2.0388    7.2644   -0.0173 C   0  0  0  0  0  0
   -2.3606    2.4554    0.8209 H   0  0  0  0  0  0
   -0.2377    1.8394    0.8015 H   0  0  0  0  0  0
    1.8430    1.3620    0.0634 H   0  0  0  0  0  0
    2.4465   -0.5623   -2.0833 H   0  0  0  0  0  0
   -3.3083    3.4981   -3.3751 H   0  0  0  0  0  0
   -2.9503   -0.3281   -0.2971 H   0  0  0  0  0  0
   -2.3012   -0.0798    1.2736 H   0  0  0  0  0  0
    1.2700   -1.6216   -0.2057 H   0  0  0  0  0  0
    2.7428   -0.9537    0.4350 H   0  0  0  0  0  0
   -3.2300    5.5374   -4.2886 H   0  0  0  0  0  0
   -3.0310    6.2552   -2.7117 H   0  0  0  0  0  0
    4.1347    3.7735   -2.5043 H   0  0  0  0  0  0
    2.6642    4.0124   -3.4482 H   0  0  0  0  0  0
   -0.0021   -0.5881    1.6679 H   0  0  0  0  0  0
   -3.5596    1.1860    3.0587 H   0  0  0  0  0  0
   -5.3572    0.1779   -0.7332 H   0  0  0  0  0  0
    4.4117    6.1762   -2.1733 H   0  0  0  0  0  0
    0.8620    4.1861   -0.7787 H   0  0  0  0  0  0
   -0.9976    4.1539   -5.1263 H   0  0  0  0  0  0
   -1.0653    7.5798   -2.5260 H   0  0  0  0  0  0
    2.5447    0.8335    2.2125 H   0  0  0  0  0  0
    1.8312    0.1260    3.6475 H   0  0  0  0  0  0
    0.8964    1.2380    2.6706 H   0  0  0  0  0  0
    1.9096   -2.0597    3.3198 H   0  0  0  0  0  0
    1.6613   -2.8559    1.7828 H   0  0  0  0  0  0
    0.2855   -2.4859    2.8050 H   0  0  0  0  0  0
    0.2998    6.1538    0.5883 H   0  0  0  0  0  0
    3.8411    8.1407   -0.7931 H   0  0  0  0  0  0
   -7.5791    0.6308    0.2217 H   0  0  0  0  0  0
    1.3063    4.7238   -5.8056 H   0  0  0  0  0  0
    1.2344    8.1419   -3.2173 H   0  0  0  0  0  0
   -5.8011    1.6252    3.9807 H   0  0  0  0  0  0
    2.4136    6.7172   -4.8544 H   0  0  0  0  0  0
   -7.8024    1.3401    2.5714 H   0  0  0  0  0  0
    1.7882    8.1277    0.5812 H   0  0  0  0  0  0
  1  2  1  0  0  0
  1  5  1  0  0  0
  1 10  2  0  0  0
  2  4  1  0  0  0
  2 11  1  0  0  0
  2 40  1  0  0  0
  3  4  1  0  0  0
  3  7  1  0  0  0
  3 12  2  0  0  0
  4 41  1  0  0  0
  5  9  1  0  0  0
  5 14  2  0  0  0
  6  8  1  0  0  0
  6 13  2  0  0  0
  6 15  1  0  0  0
  7  8  1  0  0  0
  7 16  1  0  0  0
  7 42  1  0  0  0
  8 43  1  0  0  0
  9 17  1  0  0  0
  9 44  1  0  0  0
 11 19  1  0  0  0
 11 45  1  0  0  0
 11 46  1  0  0  0
 15 18  1  0  0  0
 16 22  1  0  0  0
 16 47  1  0  0  0
 16 48  1  0  0  0
 17 20  1  0  0  0
 17 49  1  0  0  0
 17 50  1  0  0  0
 18 21  1  0  0  0
 18 51  1  0  0  0
 18 52  1  0  0  0
 19 23  2  0  0  0
 19 24  1  0  0  0
 20 27  2  0  0  0
 20 28  1  0  0  0
 21 25  2  0  0  0
 21 26  1  0  0  0
 22 29  1  0  0  0
 22 30  1  0  0  0
 22 53  1  0  0  0
 23 36  1  0  0  0
 23 54  1  0  0  0
 24 33  2  0  0  0
 24 55  1  0  0  0
 25 32  1  0  0  0
 25 56  1  0  0  0
 26 31  2  0  0  0
 26 57  1  0  0  0
 27 34  1  0  0  0
 27 58  1  0  0  0
 28 35  2  0  0  0
 28 59  1  0  0  0
 29 60  1  0  0  0
 29 61  1  0  0  0
 29 62  1  0  0  0
 30 63  1  0  0  0
 30 64  1  0  0  0
 30 65  1  0  0  0
 31 39  1  0  0  0
 31 66  1  0  0  0
 32 39  2  0  0  0
 32 67  1  0  0  0
 33 38  1  0  0  0
 33 68  1  0  0  0
 34 37  2  0  0  0
 34 69  1  0  0  0
 35 37  1  0  0  0
 35 70  1  0  0  0
 36 38  2  0  0  0
 36 71  1  0  0  0
 37 72  1  0  0  0
 38 73  1  0  0  0
 39 74  1  0  0  0
M  END
> <chembl_id>
CHEMBL419590

> <chembl_pref_name>
None

> <s_m_source_file>
sdf/inactives_sanitized.sdf

> <i_m_source_file_index>
41

> <i_lp_mmshare_version>
49012

> <i_m_ct_stereo_status>
1

> <i_f3d_flags>
0

> <s_epik_input>
W2NIXTFbY0hdW2NIXVtjSF1bY0hdYzFbQ0gyXVtOSF1DKD1PKUMoPU8pW0NAQEhdKFtDSDJdYzJbY0hdW2NIXVtjSF1bY0hdW2NIXTIpW05IXUMoPU8pW0NAQEhdKFtDSDJdW0NIXShbQ0gzXSlbQ0gzXSlbTkhdQyg9TylPW0NIMl1jM1tjSF1bY0hdW2NIXVtjSF1bY0hdMw==

> <s_epik_cmdline>
J2VwaWtfcHl0aG9uJywgJy1waHQnLCAnMC41JywgJy1waCcsICc3LjUnLCAnLW50JywgJy1tYScsICcyMDAnLCAnLWltYWUnLCAnPGluZmlsZS5tYWU+JywgJy1vbWFlJywgJzxvdXRmaWxlLm1hZT4n

> <r_lp_tautomer_probability>
1

> <r_epik_Ionization_Penalty>
  0.0000

> <r_epik_Ionization_Penalty_Charging>
  0.0000

> <r_epik_Ionization_Penalty_Neutral>
  0.0000

> <r_epik_State_Penalty>
 -0.0000

> <r_epik_Charging_Adjusted_Penalty>
0

> <i_epik_Tot_Q>
0

> <i_epik_Tot_abs_Q>
0

> <s_epik_Chemistry_Notes>
This compound has an ester and may undergo hydrolysis at high or low pH.

> <s_lp_Force_Field>
OPLS3e

> <r_lp_Energy>
41.254681

> <b_lp_Chiralities_Consistent>
1

> <s_lp_Variant>
sdf/inactives_sanitized.sdf:41-1

$$$$
sdf/inactives_sanitized.sdf:42
                    3D
 Schrodinger Suite 2020-1.
 62 65  0  0  1  0            999 V2000
    0.1345   -2.3142   -1.3907 C   0  0  0  0  0  0
   -0.3351   -0.8437   -1.3298 C   0  0  0  0  0  0
    0.1940   -0.0813   -0.0686 C   0  0  0  0  0  0
   -0.3008   -0.8977    1.1745 C   0  0  0  0  0  0
    0.1774   -2.3653    1.1614 C   0  0  0  0  0  0
   -0.2679   -3.0901   -0.1224 C   0  0  0  0  0  0
    1.6672    0.0574   -0.1257 N   0  0  0  0  0  0
   -0.5160    1.3199   -0.0531 C   0  0  0  0  0  0
   -0.4745    2.0464   -1.1877 N   0  0  0  0  0  0
   -0.9437    1.8053    0.9972 O   0  0  0  0  0  0
   -0.9413    3.4244   -1.3124 C   0  0  0  0  0  0
   -0.1152    4.3753   -0.5475 C   0  0  0  0  0  0
    0.5342    5.1219    0.0522 N   0  0  0  0  0  0
    2.4906    0.7355    0.7055 C   0  0  0  0  0  0
    3.9711    0.6091    0.4217 C   0  0  0  0  0  0
    2.0891    1.4087    1.6563 O   0  0  0  0  0  0
    4.8975    0.8566    1.4423 C   0  0  0  0  0  0
    6.2639    0.7484    1.2000 C   0  0  0  0  0  0
    6.7365    0.3950   -0.0697 C   0  0  0  0  0  0
    5.8124    0.1513   -1.0913 C   0  0  0  0  0  0
    4.4454    0.2573   -0.8507 C   0  0  0  0  0  0
    8.2076    0.2753   -0.3459 C   0  0  0  0  0  0
    9.0669    0.1127    0.6491 N   0  0  0  0  0  0
   10.3192    0.0173    0.2659 C   0  0  0  0  0  0
   10.5309    0.1359   -1.4494 S   0  0  0  0  0  0
    8.8130    0.3179   -1.6041 C   0  0  0  0  0  0
   11.4725   -0.1838    1.2324 C   0  0  0  0  0  0
   11.3208   -1.3856    2.0588 N   0  0  0  0  0  0
   12.2470   -1.3542    3.1983 C   0  0  0  0  0  0
   12.1396   -2.6394    4.0465 C   0  0  0  0  0  0
   12.3499   -3.7830    3.2253 O   0  0  0  0  0  0
   11.4002   -3.8737    2.1686 C   0  0  0  0  0  0
   11.4809   -2.6189    1.2732 C   0  0  0  0  0  0
    1.2182   -2.3528   -1.5120 H   0  0  0  0  0  0
   -0.2858   -2.8025   -2.2708 H   0  0  0  0  0  0
   -1.4197   -0.7640   -1.4352 H   0  0  0  0  0  0
    0.0631   -0.3714   -2.2304 H   0  0  0  0  0  0
    0.1159   -0.4565    2.0819 H   0  0  0  0  0  0
   -1.3829   -0.8315    1.3079 H   0  0  0  0  0  0
    1.2648   -2.4012    1.2432 H   0  0  0  0  0  0
   -0.2097   -2.8899    2.0357 H   0  0  0  0  0  0
   -1.3516   -3.2174   -0.1063 H   0  0  0  0  0  0
    0.1554   -4.0949   -0.1491 H   0  0  0  0  0  0
    2.1216   -0.6695   -0.6583 H   0  0  0  0  0  0
   -0.0112    1.6548   -1.9946 H   0  0  0  0  0  0
   -0.9067    3.7166   -2.3617 H   0  0  0  0  0  0
   -1.9790    3.5151   -0.9877 H   0  0  0  0  0  0
    4.5683    1.1320    2.4346 H   0  0  0  0  0  0
    6.9524    0.9457    2.0089 H   0  0  0  0  0  0
    6.1444   -0.1260   -2.0808 H   0  0  0  0  0  0
    3.7652    0.0671   -1.6685 H   0  0  0  0  0  0
    8.3553    0.4452   -2.5739 H   0  0  0  0  0  0
   12.4239   -0.2310    0.6993 H   0  0  0  0  0  0
   11.5504    0.6927    1.8779 H   0  0  0  0  0  0
   13.2708   -1.2279    2.8407 H   0  0  0  0  0  0
   12.0328   -0.4815    3.8167 H   0  0  0  0  0  0
   12.8943   -2.6306    4.8329 H   0  0  0  0  0  0
   11.1706   -2.7001    4.5457 H   0  0  0  0  0  0
   11.6187   -4.7647    1.5794 H   0  0  0  0  0  0
   10.3934   -4.0056    2.5698 H   0  0  0  0  0  0
   10.7134   -2.6651    0.4996 H   0  0  0  0  0  0
   12.4371   -2.6008    0.7470 H   0  0  0  0  0  0
  1  6  1  0  0  0
  1  2  1  0  0  0
  1 34  1  0  0  0
  1 35  1  0  0  0
  2  3  1  0  0  0
  2 36  1  0  0  0
  2 37  1  0  0  0
  3  8  1  0  0  0
  3  4  1  0  0  0
  3  7  1  0  0  0
  4  5  1  0  0  0
  4 38  1  0  0  0
  4 39  1  0  0  0
  5  6  1  0  0  0
  5 40  1  0  0  0
  5 41  1  0  0  0
  6 42  1  0  0  0
  6 43  1  0  0  0
  7 14  1  0  0  0
  7 44  1  0  0  0
  8  9  1  0  0  0
  8 10  2  0  0  0
  9 11  1  0  0  0
  9 45  1  0  0  0
 11 12  1  0  0  0
 11 46  1  0  0  0
 11 47  1  0  0  0
 12 13  3  0  0  0
 14 15  1  0  0  0
 14 16  2  0  0  0
 15 17  2  0  0  0
 15 21  1  0  0  0
 17 18  1  0  0  0
 17 48  1  0  0  0
 18 19  2  0  0  0
 18 49  1  0  0  0
 19 20  1  0  0  0
 19 22  1  0  0  0
 20 21  2  0  0  0
 20 50  1  0  0  0
 21 51  1  0  0  0
 22 23  1  0  0  0
 22 26  2  0  0  0
 23 24  2  0  0  0
 24 25  1  0  0  0
 24 27  1  0  0  0
 25 26  1  0  0  0
 26 52  1  0  0  0
 27 28  1  0  0  0
 27 53  1  0  0  0
 27 54  1  0  0  0
 28 29  1  0  0  0
 28 33  1  0  0  0
 29 30  1  0  0  0
 29 55  1  0  0  0
 29 56  1  0  0  0
 30 31  1  0  0  0
 30 57  1  0  0  0
 30 58  1  0  0  0
 31 32  1  0  0  0
 32 33  1  0  0  0
 32 59  1  0  0  0
 32 60  1  0  0  0
 33 61  1  0  0  0
 33 62  1  0  0  0
M  END
> <chembl_id>
CHEMBL381026

> <chembl_pref_name>
None

> <s_m_source_file>
sdf/inactives_sanitized.sdf

> <i_m_source_file_index>
42

> <i_lp_mmshare_version>
49012

> <i_m_ct_stereo_status>
1

> <i_f3d_flags>
0

> <s_epik_input>
W0NIMl0xW0NIMl1bQ0gyXVtDSDJdW0NIMl1DMShDKD1PKVtOSF1bQ0gyXUMjTilbTkhdQyg9TyljMltjSF1bY0hdYyhbY0hdW2NIXTIpLWMzbmMoc1tjSF0zKVtDSDJdTjRbQ0gyXVtDSDJdT1tDSDJdW0NIMl00

> <s_epik_cmdline>
J2VwaWtfcHl0aG9uJywgJy1waHQnLCAnMC41JywgJy1waCcsICc3LjUnLCAnLW50JywgJy1tYScsICcyMDAnLCAnLWltYWUnLCAnPGluZmlsZS5tYWU+JywgJy1vbWFlJywgJzxvdXRmaWxlLm1hZT4n

> <r_lp_tautomer_probability>
1

> <r_epik_Ionization_Penalty>
  0.0007

> <r_epik_Ionization_Penalty_Charging>
  0.0000

> <r_epik_Ionization_Penalty_Neutral>
  0.0007

> <r_epik_State_Penalty>
 -0.0000

> <r_epik_Charging_Adjusted_Penalty>
0

> <i_epik_Tot_Q>
0

> <i_epik_Tot_abs_Q>
0

> <s_lp_Force_Field>
OPLS3e

> <r_lp_Energy>
46.234793

> <b_lp_Chiralities_Consistent>
1

> <s_lp_Variant>
sdf/inactives_sanitized.sdf:42-1

$$$$
sdf/inactives_sanitized.sdf:43
                    3D
 Schrodinger Suite 2020-1.
 63 64  0  0  1  0            999 V2000
   -0.0138   -0.0237    0.2317 C   0  0  0  0  0  0
   -0.5467    1.1412   -0.1777 N   0  0  0  0  0  0
    2.2170   -0.1574    2.5108 C   0  0  0  0  0  0
    1.5259   -0.1360    0.1117 C   0  0  1  0  0  0
    2.1256   -0.8020    1.2809 N   0  0  0  0  0  0
   -1.9732    1.4992   -0.1293 C   0  0  2  0  0  0
   -2.5595    1.3159   -1.5291 C   0  0  0  0  0  0
   -0.6718   -0.9731    0.6616 O   0  0  0  0  0  0
    1.8782    1.0040    2.7551 O   0  0  0  0  0  0
    2.7381   -1.0126    3.4106 O   0  0  0  0  0  0
    1.9534   -0.9299   -1.1545 C   0  0  0  0  0  0
   -1.9035    1.0363   -2.5352 O   0  0  0  0  0  0
   -2.1725    2.9488    0.3795 C   0  0  0  0  0  0
    2.9506   -0.6118    4.7590 C   0  0  0  0  0  0
   -1.6351    3.1845    1.8070 C   0  0  0  0  0  0
   -1.8482    4.6117    2.2884 C   0  0  0  0  0  0
    3.4644   -1.7906    5.5664 C   0  0  0  0  0  0
    1.5867   -0.2888   -2.5168 C   0  0  0  0  0  0
   -4.0750    1.4668   -1.6513 C   0  0  0  0  0  0
   -0.8579    5.5746    2.0748 C   0  0  0  0  0  0
    2.6663   -2.3494    6.5674 C   0  0  0  0  0  0
   -3.0355    4.9586    2.9389 C   0  0  0  0  0  0
    4.7350   -2.3115    5.3073 C   0  0  0  0  0  0
    1.9593   -1.2241   -3.6871 C   0  0  0  0  0  0
    2.1784    1.1265   -2.6899 C   0  0  0  0  0  0
   -1.0537    6.8815    2.5134 C   0  0  0  0  0  0
    5.2052   -3.3937    6.0468 C   0  0  0  0  0  0
    3.1375   -3.4310    7.3072 C   0  0  0  0  0  0
   -3.2308    6.2659    3.3771 C   0  0  0  0  0  0
   -2.2391    7.2210    3.1624 C   0  0  0  0  0  0
    4.4043   -3.9483    7.0434 C   0  0  0  0  0  0
    0.0704    1.8653   -0.5165 H   0  0  0  0  0  0
    1.9678    0.8611    0.0475 H   0  0  0  0  0  0
    2.3422   -1.7861    1.2200 H   0  0  0  0  0  0
   -2.5011    0.8269    0.5513 H   0  0  0  0  0  0
    3.0359   -1.0717   -1.1387 H   0  0  0  0  0  0
    1.5237   -1.9331   -1.1107 H   0  0  0  0  0  0
   -1.6864    3.6576   -0.2946 H   0  0  0  0  0  0
   -3.2293    3.2208    0.3671 H   0  0  0  0  0  0
    3.6785    0.2001    4.8058 H   0  0  0  0  0  0
    2.0226   -0.2374    5.1953 H   0  0  0  0  0  0
   -2.1122    2.4951    2.5056 H   0  0  0  0  0  0
   -0.5710    2.9478    1.8619 H   0  0  0  0  0  0
    0.5021   -0.1895   -2.5513 H   0  0  0  0  0  0
   -4.5791    0.8721   -0.8894 H   0  0  0  0  0  0
   -4.4190    1.1303   -2.6298 H   0  0  0  0  0  0
   -4.3667    2.5097   -1.5293 H   0  0  0  0  0  0
    0.0606    5.3121    1.5701 H   0  0  0  0  0  0
    1.6833   -1.9504    6.7722 H   0  0  0  0  0  0
   -3.8056    4.2189    3.1039 H   0  0  0  0  0  0
    5.3545   -1.8812    4.5336 H   0  0  0  0  0  0
    2.7529   -0.8181   -4.3142 H   0  0  0  0  0  0
    1.0961   -1.3997   -4.3300 H   0  0  0  0  0  0
    2.3023   -2.1993   -3.3398 H   0  0  0  0  0  0
    2.5789    1.2953   -3.6894 H   0  0  0  0  0  0
    2.9883    1.3205   -1.9864 H   0  0  0  0  0  0
    1.4120    1.8847   -2.5245 H   0  0  0  0  0  0
   -0.2905    7.6281    2.3514 H   0  0  0  0  0  0
    6.1857   -3.8011    5.8487 H   0  0  0  0  0  0
    2.5235   -3.8668    8.0816 H   0  0  0  0  0  0
   -4.1466    6.5380    3.8807 H   0  0  0  0  0  0
   -2.3909    8.2348    3.5027 H   0  0  0  0  0  0
    4.7688   -4.7876    7.6173 H   0  0  0  0  0  0
  1  2  1  0  0  0
  1  4  1  0  0  0
  1  8  2  0  0  0
  2  6  1  0  0  0
  2 32  1  0  0  0
  3  5  1  0  0  0
  3  9  2  0  0  0
  3 10  1  0  0  0
  4  5  1  0  0  0
  4 11  1  0  0  0
  4 33  1  0  0  0
  5 34  1  0  0  0
  6  7  1  0  0  0
  6 13  1  0  0  0
  6 35  1  0  0  0
  7 12  2  0  0  0
  7 19  1  0  0  0
 10 14  1  0  0  0
 11 18  1  0  0  0
 11 36  1  0  0  0
 11 37  1  0  0  0
 13 15  1  0  0  0
 13 38  1  0  0  0
 13 39  1  0  0  0
 14 17  1  0  0  0
 14 40  1  0  0  0
 14 41  1  0  0  0
 15 16  1  0  0  0
 15 42  1  0  0  0
 15 43  1  0  0  0
 16 20  2  0  0  0
 16 22  1  0  0  0
 17 21  2  0  0  0
 17 23  1  0  0  0
 18 24  1  0  0  0
 18 25  1  0  0  0
 18 44  1  0  0  0
 19 45  1  0  0  0
 19 46  1  0  0  0
 19 47  1  0  0  0
 20 26  1  0  0  0
 20 48  1  0  0  0
 21 28  1  0  0  0
 21 49  1  0  0  0
 22 29  2  0  0  0
 22 50  1  0  0  0
 23 27  2  0  0  0
 23 51  1  0  0  0
 24 52  1  0  0  0
 24 53  1  0  0  0
 24 54  1  0  0  0
 25 55  1  0  0  0
 25 56  1  0  0  0
 25 57  1  0  0  0
 26 30  2  0  0  0
 26 58  1  0  0  0
 27 31  1  0  0  0
 27 59  1  0  0  0
 28 31  2  0  0  0
 28 60  1  0  0  0
 29 30  1  0  0  0
 29 61  1  0  0  0
 30 62  1  0  0  0
 31 63  1  0  0  0
M  END
> <chembl_id>
CHEMBL98766

> <chembl_pref_name>
None

> <i_m_ct_stereo_status>
1

> <s_m_source_file>
sdf/inactives_sanitized.sdf

> <i_m_source_file_index>
43

> <i_lp_mmshare_version>
49012

> <i_f3d_flags>
0

> <s_epik_input>
W2NIXTFbY0hdW2NIXVtjSF1bY0hdYzFbQ0gyXVtDSDJdW0NAQEhdKEMoPU8pW0NIM10pW05IXUMoPU8pW0NASF0oW0NIMl1bQ0hdKFtDSDNdKVtDSDNdKVtOSF1DKD1PKU9bQ0gyXWMyW2NIXVtjSF1bY0hdW2NIXVtjSF0y

> <s_epik_cmdline>
J2VwaWtfcHl0aG9uJywgJy1waHQnLCAnMC41JywgJy1waCcsICc3LjUnLCAnLW50JywgJy1tYScsICcyMDAnLCAnLWltYWUnLCAnPGluZmlsZS5tYWU+JywgJy1vbWFlJywgJzxvdXRmaWxlLm1hZT4n

> <r_lp_tautomer_probability>
1

> <r_epik_Ionization_Penalty>
  0.0000

> <r_epik_Ionization_Penalty_Charging>
  0.0000

> <r_epik_Ionization_Penalty_Neutral>
  0.0000

> <r_epik_State_Penalty>
 -0.0000

> <r_epik_Charging_Adjusted_Penalty>
0

> <i_epik_Tot_Q>
0

> <i_epik_Tot_abs_Q>
0

> <s_epik_Chemistry_Notes>
This compound has an ester and may undergo hydrolysis at high or low pH.

> <s_lp_Force_Field>
OPLS3e

> <r_lp_Energy>
31.913919

> <b_lp_Chiralities_Consistent>
1

> <s_lp_Variant>
sdf/inactives_sanitized.sdf:43-1

$$$$
sdf/inactives_sanitized.sdf:44
                    3D
 Schrodinger Suite 2020-1.
 70 71  0  0  1  0            999 V2000
    2.1615    0.2009   -1.0465 C   0  0  0  0  0  0
   -0.7504    0.9609   -0.1722 C   0  0  0  0  0  0
    0.0863    0.0142    0.2962 N   0  0  0  0  0  0
    1.6654   -0.8264   -2.1562 C   0  0  0  0  0  0
   -2.6879    0.6835   -2.6871 C   0  0  0  0  0  0
    4.9309   -5.1701   -7.3805 N   0  0  0  0  0  0
   -2.2466    0.5707   -0.2301 C   0  0  2  0  0  0
    1.5593    0.0860    0.3603 C   0  0  1  0  0  0
   -2.9423    1.1414   -1.3979 N   0  0  0  0  0  0
    3.1612   -4.0793   -6.5271 N   0  0  0  0  0  0
    4.2520   -4.0476   -7.3625 C   0  0  0  0  0  0
    3.0103    1.0521   -1.3239 O   0  0  0  0  0  0
    4.2884   -5.9616   -6.5392 C   0  0  0  0  0  0
    3.1865   -5.3348   -5.9763 C   0  0  0  0  0  0
   -0.3897    2.0849   -0.5266 O   0  0  0  0  0  0
   -1.9199   -0.2301   -3.0017 O   0  0  0  0  0  0
    1.0858   -1.8729   -1.8607 O   0  0  0  0  0  0
   -3.4209    1.4061   -3.5554 O   0  0  0  0  0  0
   -2.9694    1.0230    1.0681 C   0  0  0  0  0  0
    1.9426   -0.4031   -3.4032 N   0  0  0  0  0  0
   -3.3481    1.1568   -4.9535 C   0  0  0  0  0  0
    2.2146   -3.0076   -6.2573 C   0  0  0  0  0  0
   -4.3600    2.0268   -5.6755 C   0  0  0  0  0  0
    2.5485   -2.3024   -4.9293 C   0  0  0  0  0  0
    2.1811   -1.1036    1.1358 C   0  0  0  0  0  0
   -4.4358    0.5468    1.2121 C   0  0  0  0  0  0
    1.5975   -1.1299   -4.6221 C   0  0  0  0  0  0
   -5.6918    1.6142   -5.7647 C   0  0  0  0  0  0
   -3.9577    3.2359   -6.2477 C   0  0  0  0  0  0
   -5.1142    1.2066    2.4324 C   0  0  0  0  0  0
   -4.5565   -0.9923    1.2377 C   0  0  0  0  0  0
    1.7059   -1.2058    2.5951 C   0  0  0  0  0  0
   -6.6217    2.4112   -6.4275 C   0  0  0  0  0  0
   -4.8883    4.0322   -6.9107 C   0  0  0  0  0  0
   -6.2155    3.6162   -6.9978 C   0  0  0  0  0  0
   -0.3066   -0.8711    0.5819 H   0  0  0  0  0  0
   -2.3105   -0.5184   -0.2915 H   0  0  0  0  0  0
    1.8011    0.9906    0.9234 H   0  0  0  0  0  0
   -3.5072    1.9680   -1.2686 H   0  0  0  0  0  0
    4.4788   -3.1522   -7.9227 H   0  0  0  0  0  0
    4.6198   -6.9701   -6.3395 H   0  0  0  0  0  0
    2.4437   -5.6548   -5.2600 H   0  0  0  0  0  0
   -2.4148    0.6725    1.9410 H   0  0  0  0  0  0
   -2.9422    2.1133    1.1257 H   0  0  0  0  0  0
    2.4177    0.4804   -3.5203 H   0  0  0  0  0  0
   -2.3438    1.3670   -5.3260 H   0  0  0  0  0  0
   -3.5544    0.1075   -5.1724 H   0  0  0  0  0  0
    2.2403   -2.3011   -7.0885 H   0  0  0  0  0  0
    1.2084   -3.4289   -6.2391 H   0  0  0  0  0  0
    2.5047   -3.0265   -4.1139 H   0  0  0  0  0  0
    3.5750   -1.9326   -4.9616 H   0  0  0  0  0  0
    1.9526   -2.0477    0.6391 H   0  0  0  0  0  0
    3.2692   -1.0152    1.1384 H   0  0  0  0  0  0
   -4.9840    0.8974    0.3368 H   0  0  0  0  0  0
    1.6160   -0.4241   -5.4534 H   0  0  0  0  0  0
    0.5628   -1.4783   -4.5874 H   0  0  0  0  0  0
   -6.0058    0.6803   -5.3210 H   0  0  0  0  0  0
   -2.9291    3.5595   -6.1788 H   0  0  0  0  0  0
   -5.3735    0.4890    3.2109 H   0  0  0  0  0  0
   -6.0347    1.7110    2.1367 H   0  0  0  0  0  0
   -4.4758    1.9568    2.9001 H   0  0  0  0  0  0
   -3.6000   -1.4739    1.4429 H   0  0  0  0  0  0
   -4.9088   -1.3648    0.2754 H   0  0  0  0  0  0
   -5.2601   -1.3477    1.9906 H   0  0  0  0  0  0
    2.1964   -2.0350    3.1055 H   0  0  0  0  0  0
    0.6303   -1.3740    2.6564 H   0  0  0  0  0  0
    1.9347   -0.2952    3.1499 H   0  0  0  0  0  0
   -7.6525    2.0968   -6.4991 H   0  0  0  0  0  0
   -4.5826    4.9681   -7.3549 H   0  0  0  0  0  0
   -6.9369    4.2341   -7.5121 H   0  0  0  0  0  0
  1  4  1  0  0  0
  1  8  1  0  0  0
  1 12  2  0  0  0
  2  3  1  0  0  0
  2  7  1  0  0  0
  2 15  2  0  0  0
  3  8  1  0  0  0
  3 36  1  0  0  0
  4 17  2  0  0  0
  4 20  1  0  0  0
  5  9  1  0  0  0
  5 16  2  0  0  0
  5 18  1  0  0  0
  6 11  2  0  0  0
  6 13  1  0  0  0
  7  9  1  0  0  0
  7 19  1  0  0  0
  7 37  1  0  0  0
  8 25  1  0  0  0
  8 38  1  0  0  0
  9 39  1  0  0  0
 10 22  1  0  0  0
 10 11  1  0  0  0
 10 14  1  0  0  0
 11 40  1  0  0  0
 13 14  2  0  0  0
 13 41  1  0  0  0
 14 42  1  0  0  0
 18 21  1  0  0  0
 19 26  1  0  0  0
 19 43  1  0  0  0
 19 44  1  0  0  0
 20 27  1  0  0  0
 20 45  1  0  0  0
 21 23  1  0  0  0
 21 46  1  0  0  0
 21 47  1  0  0  0
 22 24  1  0  0  0
 22 48  1  0  0  0
 22 49  1  0  0  0
 23 28  2  0  0  0
 23 29  1  0  0  0
 24 27  1  0  0  0
 24 50  1  0  0  0
 24 51  1  0  0  0
 25 32  1  0  0  0
 25 52  1  0  0  0
 25 53  1  0  0  0
 26 30  1  0  0  0
 26 31  1  0  0  0
 26 54  1  0  0  0
 27 55  1  0  0  0
 27 56  1  0  0  0
 28 33  1  0  0  0
 28 57  1  0  0  0
 29 34  2  0  0  0
 29 58  1  0  0  0
 30 59  1  0  0  0
 30 60  1  0  0  0
 30 61  1  0  0  0
 31 62  1  0  0  0
 31 63  1  0  0  0
 31 64  1  0  0  0
 32 65  1  0  0  0
 32 66  1  0  0  0
 32 67  1  0  0  0
 33 35  2  0  0  0
 33 68  1  0  0  0
 34 35  1  0  0  0
 34 69  1  0  0  0
 35 70  1  0  0  0
M  END
> <chembl_id>
CHEMBL133634

> <chembl_pref_name>
None

> <s_m_source_file>
sdf/inactives_sanitized.sdf

> <i_m_source_file_index>
44

> <i_lp_mmshare_version>
49012

> <i_m_ct_stereo_status>
1

> <i_f3d_flags>
0

> <s_epik_input>
W2NIXTFbY0hdbltjSF1uMVtDSDJdW0NIMl1bQ0gyXVtOSF1DKD1PKUMoPU8pW0NASF0oW0NIMl1bQ0gzXSlbTkhdQyg9TylbQ0BASF0oW0NIMl1bQ0hdKFtDSDNdKVtDSDNdKVtOSF1DKD1PKU9bQ0gyXWMyW2NIXVtjSF1bY0hdW2NIXVtjSF0y

> <s_epik_cmdline>
J2VwaWtfcHl0aG9uJywgJy1waHQnLCAnMC41JywgJy1waCcsICc3LjUnLCAnLW50JywgJy1tYScsICcyMDAnLCAnLWltYWUnLCAnPGluZmlsZS5tYWU+JywgJy1vbWFlJywgJzxvdXRmaWxlLm1hZT4n

> <r_lp_tautomer_probability>
0.99990000499975

> <r_epik_Ionization_Penalty>
  0.2428

> <r_epik_Ionization_Penalty_Charging>
  0.2428

> <r_epik_Ionization_Penalty_Neutral>
  0.0000

> <r_epik_State_Penalty>
  0.2339

> <r_epik_Charging_Adjusted_Penalty>
0.476682580671636

> <i_epik_Tot_Q>
0

> <i_epik_Tot_abs_Q>
0

> <s_epik_Chemistry_Notes>
This compound has an ester and may undergo hydrolysis at high or low pH.

> <s_lp_Force_Field>
OPLS3e

> <r_lp_Energy>
32.721797

> <b_lp_Chiralities_Consistent>
1

> <s_lp_Variant>
sdf/inactives_sanitized.sdf:44-1

$$$$
sdf/inactives_sanitized.sdf:44
                    3D
 Schrodinger Suite 2020-1.
 71 72  0  0  1  0            999 V2000
    2.4757   -0.6837   -0.6336 C   0  0  0  0  0  0
   -0.3956    0.9622   -0.2734 C   0  0  0  0  0  0
    0.3620   -0.0139    0.2600 N   0  0  0  0  0  0
    2.7691    0.1959   -1.9198 C   0  0  0  0  0  0
   -2.5586    0.8019   -2.7062 C   0  0  0  0  0  0
   -1.0781    2.9751   -7.0406 N   0  3  0  0  0  0
   -1.9155    0.6796   -0.2982 C   0  0  2  0  0  0
    1.8046    0.0407    0.5331 C   0  0  1  0  0  0
   -2.6088    1.3302   -1.4221 N   0  0  0  0  0  0
    0.2304    1.6734   -5.7782 N   0  0  0  0  0  0
   -0.2181    2.9666   -5.9667 C   0  0  0  0  0  0
    2.8115   -1.8718   -0.5998 O   0  0  0  0  0  0
   -1.1944    1.6881   -7.5309 C   0  0  0  0  0  0
   -0.3914    0.8769   -6.7358 C   0  0  0  0  0  0
    0.0416    2.0425   -0.6728 O   0  0  0  0  0  0
   -1.9505   -0.2119   -3.0598 O   0  0  0  0  0  0
    2.7541    1.4269   -1.8784 O   0  0  0  0  0  0
   -3.3114    1.5701   -3.5148 O   0  0  0  0  0  0
   -2.5648    1.1476    1.0335 C   0  0  0  0  0  0
    3.0349   -0.5523   -3.0075 N   0  0  0  0  0  0
   -3.6153    1.1579   -4.8439 C   0  0  0  0  0  0
    1.1542    1.2404   -4.7343 C   0  0  0  0  0  0
   -4.1762    2.3000   -5.6856 C   0  0  0  0  0  0
    2.1937    0.2224   -5.2594 C   0  0  0  0  0  0
    2.1475   -0.6189    1.8943 C   0  0  0  0  0  0
   -4.0516    0.7580    1.2196 C   0  0  0  0  0  0
    3.3957   -0.0226   -4.3237 C   0  0  0  0  0  0
   -4.8280    1.9834   -6.8805 C   0  0  0  0  0  0
   -4.0314    3.6414   -5.3074 C   0  0  0  0  0  0
   -4.6415    1.4164    2.4855 C   0  0  0  0  0  0
   -4.2682   -0.7705    1.2024 C   0  0  0  0  0  0
    1.5336    0.1105    3.1014 C   0  0  0  0  0  0
   -5.3370    2.9953   -7.6902 C   0  0  0  0  0  0
   -4.5406    4.6531   -6.1173 C   0  0  0  0  0  0
   -5.1915    4.3258   -7.3045 C   0  0  0  0  0  0
   -0.0962   -0.8592    0.5688 H   0  0  0  0  0  0
   -2.0560   -0.4011   -0.3762 H   0  0  0  0  0  0
    2.1542    1.0742    0.5945 H   0  0  0  0  0  0
   -3.0718    2.2131   -1.2629 H   0  0  0  0  0  0
    0.0624    3.8266   -5.3758 H   0  0  0  0  0  0
   -1.8358    1.4721   -8.3734 H   0  0  0  0  0  0
   -0.2082   -0.1872   -6.7682 H   0  0  0  0  0  0
   -2.0049    0.7458    1.8808 H   0  0  0  0  0  0
   -2.4685    2.2329    1.1121 H   0  0  0  0  0  0
    3.0266   -1.5580   -2.9128 H   0  0  0  0  0  0
   -2.7279    0.7636   -5.3393 H   0  0  0  0  0  0
   -4.3512    0.3534   -4.7973 H   0  0  0  0  0  0
    1.6657    2.1252   -4.3504 H   0  0  0  0  0  0
    0.5753    0.8256   -3.9079 H   0  0  0  0  0  0
    1.7062   -0.7311   -5.4671 H   0  0  0  0  0  0
    2.5875    0.5716   -6.2156 H   0  0  0  0  0  0
    1.8036   -1.6551    1.9128 H   0  0  0  0  0  0
    3.2305   -0.6522    2.0277 H   0  0  0  0  0  0
   -4.6085    1.1705    0.3774 H   0  0  0  0  0  0
    4.0895   -0.7215   -4.7922 H   0  0  0  0  0  0
    3.9468    0.9118   -4.1932 H   0  0  0  0  0  0
   -4.9403    0.9526   -7.1845 H   0  0  0  0  0  0
   -3.5221    3.9104   -4.3934 H   0  0  0  0  0  0
   -4.9024    0.6904    3.2557 H   0  0  0  0  0  0
   -5.5477    1.9735    2.2454 H   0  0  0  0  0  0
   -3.9457    2.1207    2.9431 H   0  0  0  0  0  0
   -3.3387   -1.3173    1.3631 H   0  0  0  0  0  0
   -4.6716   -1.0890    0.2407 H   0  0  0  0  0  0
   -4.9704   -1.1052    1.9657 H   0  0  0  0  0  0
    1.8256   -0.3701    4.0352 H   0  0  0  0  0  0
    0.4439    0.1103    3.0590 H   0  0  0  0  0  0
    1.8658    1.1482    3.1467 H   0  0  0  0  0  0
   -5.8431    2.7497   -8.6124 H   0  0  0  0  0  0
   -4.4311    5.6875   -5.8263 H   0  0  0  0  0  0
   -5.5873    5.1111   -7.9320 H   0  0  0  0  0  0
   -1.5559    3.7881   -7.4041 H   0  0  0  0  0  0
  1  4  1  0  0  0
  1  8  1  0  0  0
  1 12  2  0  0  0
  2  3  1  0  0  0
  2  7  1  0  0  0
  2 15  2  0  0  0
  3  8  1  0  0  0
  3 36  1  0  0  0
  4 17  2  0  0  0
  4 20  1  0  0  0
  5  9  1  0  0  0
  5 16  2  0  0  0
  5 18  1  0  0  0
  6 11  2  0  0  0
  6 13  1  0  0  0
  6 71  1  0  0  0
  7  9  1  0  0  0
  7 19  1  0  0  0
  7 37  1  0  0  0
  8 25  1  0  0  0
  8 38  1  0  0  0
  9 39  1  0  0  0
 10 22  1  0  0  0
 10 11  1  0  0  0
 10 14  1  0  0  0
 11 40  1  0  0  0
 13 14  2  0  0  0
 13 41  1  0  0  0
 14 42  1  0  0  0
 18 21  1  0  0  0
 19 26  1  0  0  0
 19 43  1  0  0  0
 19 44  1  0  0  0
 20 27  1  0  0  0
 20 45  1  0  0  0
 21 23  1  0  0  0
 21 46  1  0  0  0
 21 47  1  0  0  0
 22 24  1  0  0  0
 22 48  1  0  0  0
 22 49  1  0  0  0
 23 28  2  0  0  0
 23 29  1  0  0  0
 24 27  1  0  0  0
 24 50  1  0  0  0
 24 51  1  0  0  0
 25 32  1  0  0  0
 25 52  1  0  0  0
 25 53  1  0  0  0
 26 30  1  0  0  0
 26 31  1  0  0  0
 26 54  1  0  0  0
 27 55  1  0  0  0
 27 56  1  0  0  0
 28 33  1  0  0  0
 28 57  1  0  0  0
 29 34  2  0  0  0
 29 58  1  0  0  0
 30 59  1  0  0  0
 30 60  1  0  0  0
 30 61  1  0  0  0
 31 62  1  0  0  0
 31 63  1  0  0  0
 31 64  1  0  0  0
 32 65  1  0  0  0
 32 66  1  0  0  0
 32 67  1  0  0  0
 33 35  2  0  0  0
 33 68  1  0  0  0
 34 35  1  0  0  0
 34 69  1  0  0  0
 35 70  1  0  0  0
M  CHG  1   6   1
M  END
> <chembl_id>
CHEMBL133634

> <chembl_pref_name>
None

> <s_m_source_file>
sdf/inactives_sanitized.sdf

> <i_m_source_file_index>
44

> <i_lp_mmshare_version>
49012

> <i_m_ct_stereo_status>
1

> <i_f3d_flags>
0

> <s_epik_input>
W2NIXTFbY0hdbltjSF1uMVtDSDJdW0NIMl1bQ0gyXVtOSF1DKD1PKUMoPU8pW0NASF0oW0NIMl1bQ0gzXSlbTkhdQyg9TylbQ0BASF0oW0NIMl1bQ0hdKFtDSDNdKVtDSDNdKVtOSF1DKD1PKU9bQ0gyXWMyW2NIXVtjSF1bY0hdW2NIXVtjSF0y

> <s_epik_cmdline>
J2VwaWtfcHl0aG9uJywgJy1waHQnLCAnMC41JywgJy1waCcsICc3LjUnLCAnLW50JywgJy1tYScsICcyMDAnLCAnLWltYWUnLCAnPGluZmlsZS5tYWU+JywgJy1vbWFlJywgJzxvdXRmaWxlLm1hZT4n

> <r_lp_tautomer_probability>
0.99990000499975

> <r_epik_Ionization_Penalty>
  0.6458

> <r_epik_Ionization_Penalty_Charging>
  0.0000

> <r_epik_Ionization_Penalty_Neutral>
  0.6458

> <r_epik_State_Penalty>
  0.6639

> <r_epik_Charging_Adjusted_Penalty>
0.663854913455369

> <i_epik_Tot_Q>
1

> <i_epik_Tot_abs_Q>
1

> <s_epik_Chemistry_Notes>
This compound has an ester and may undergo hydrolysis at high or low pH.

> <s_lp_Force_Field>
OPLS3e

> <r_lp_Energy>
34.67721

> <b_lp_Chiralities_Consistent>
1

> <s_lp_Variant>
sdf/inactives_sanitized.sdf:44-2

$$$$
sdf/inactives_sanitized.sdf:45
                    3D
 Schrodinger Suite 2020-1.
 50 52  0  0  1  0            999 V2000
   -0.8662    4.3207    0.2733 N   0  0  0  0  0  0
   -1.8441    2.1372   -0.3480 C   0  0  0  0  0  0
   -1.1480   -0.6984    0.9749 C   0  0  0  0  0  0
   -1.4571   -1.9493    0.5897 N   0  0  0  0  0  0
   -0.6757    1.5717    0.0213 N   0  0  0  0  0  0
   -1.9593    3.6391   -0.1774 C   0  0  0  0  0  0
   -0.3479    0.1415   -0.0469 C   0  0  1  0  0  0
   -2.1826   -2.9209    1.4127 C   0  0  2  0  0  0
   -1.2088   -3.8649    2.1070 C   0  0  0  0  0  0
   -0.9402    5.6708    0.4334 C   0  0  0  0  0  0
   -3.1067   -5.0563    1.3815 O   0  0  0  0  0  0
   -2.7824    1.4822   -0.8086 O   0  0  0  0  0  0
   -1.4329   -0.2292    2.0787 O   0  0  0  0  0  0
   -0.1091   -3.5963    2.5903 O   0  0  0  0  0  0
    1.1783   -0.0522    0.1615 C   0  0  0  0  0  0
   -3.1607    4.2919   -0.4806 C   0  0  0  0  0  0
   -2.1333    6.3983    0.1429 C   0  0  0  0  0  0
   -3.2550    5.6723   -0.3224 C   0  0  0  0  0  0
   -1.8463   -5.2442    2.0120 C   0  0  0  0  0  0
   -3.0328   -3.8859    0.5845 C   0  0  0  0  0  0
    2.0820    0.6140   -0.9047 C   0  0  0  0  0  0
    0.1995    6.3697    0.9008 C   0  0  0  0  0  0
   -2.1518    7.8022    0.3280 C   0  0  0  0  0  0
    1.8152    0.0736   -2.3260 C   0  0  0  0  0  0
    3.5711    0.5092   -0.5108 C   0  0  0  0  0  0
    0.1503    7.7515    1.0720 C   0  0  0  0  0  0
   -1.0136    8.4607    0.7884 C   0  0  0  0  0  0
   -1.1794   -2.2565   -0.3312 H   0  0  0  0  0  0
    0.0480    2.1654    0.3996 H   0  0  0  0  0  0
   -0.6190   -0.2087   -1.0450 H   0  0  0  0  0  0
   -2.8095   -2.4637    2.1820 H   0  0  0  0  0  0
    1.4511    0.3291    1.1480 H   0  0  0  0  0  0
    1.4148   -1.1180    0.1869 H   0  0  0  0  0  0
   -4.0221    3.7444   -0.8360 H   0  0  0  0  0  0
   -4.1752    6.1901   -0.5517 H   0  0  0  0  0  0
   -1.2208   -5.8986    1.4040 H   0  0  0  0  0  0
   -1.9699   -5.6989    2.9948 H   0  0  0  0  0  0
   -2.6116   -4.1307   -0.3935 H   0  0  0  0  0  0
   -4.0346   -3.4984    0.3948 H   0  0  0  0  0  0
    1.8468    1.6792   -0.9165 H   0  0  0  0  0  0
    1.1071    5.8266    1.1236 H   0  0  0  0  0  0
   -3.0522    8.3585    0.1099 H   0  0  0  0  0  0
    2.7321   -0.1008   -2.8889 H   0  0  0  0  0  0
    1.2218    0.7850   -2.9013 H   0  0  0  0  0  0
    1.2674   -0.8689   -2.3088 H   0  0  0  0  0  0
    3.7013    0.1059    0.4939 H   0  0  0  0  0  0
    4.0446    1.4913   -0.5244 H   0  0  0  0  0  0
    4.1395   -0.1349   -1.1817 H   0  0  0  0  0  0
    1.0236    8.2779    1.4285 H   0  0  0  0  0  0
   -1.0344    9.5317    0.9273 H   0  0  0  0  0  0
  1  6  2  0  0  0
  1 10  1  0  0  0
  2  6  1  0  0  0
  2  5  1  0  0  0
  2 12  2  0  0  0
  3  7  1  0  0  0
  3  4  1  0  0  0
  3 13  2  0  0  0
  4  8  1  0  0  0
  4 28  1  0  0  0
  5  7  1  0  0  0
  5 29  1  0  0  0
  6 16  1  0  0  0
  7 15  1  0  0  0
  7 30  1  0  0  0
  8  9  1  0  0  0
  8 20  1  0  0  0
  8 31  1  0  0  0
  9 14  2  0  0  0
  9 19  1  0  0  0
 10 17  2  0  0  0
 10 22  1  0  0  0
 11 20  1  0  0  0
 11 19  1  0  0  0
 15 21  1  0  0  0
 15 32  1  0  0  0
 15 33  1  0  0  0
 16 18  2  0  0  0
 16 34  1  0  0  0
 17 18  1  0  0  0
 17 23  1  0  0  0
 18 35  1  0  0  0
 19 36  1  0  0  0
 19 37  1  0  0  0
 20 38  1  0  0  0
 20 39  1  0  0  0
 21 24  1  0  0  0
 21 25  1  0  0  0
 21 40  1  0  0  0
 22 26  2  0  0  0
 22 41  1  0  0  0
 23 27  2  0  0  0
 23 42  1  0  0  0
 24 43  1  0  0  0
 24 44  1  0  0  0
 24 45  1  0  0  0
 25 46  1  0  0  0
 25 47  1  0  0  0
 25 48  1  0  0  0
 26 27  1  0  0  0
 26 49  1  0  0  0
 27 50  1  0  0  0
M  END
> <chembl_id>
CHEMBL62239

> <chembl_pref_name>
None

> <i_m_ct_stereo_status>
1

> <s_m_source_file>
sdf/inactives_sanitized.sdf

> <i_m_source_file_index>
45

> <i_lp_mmshare_version>
49012

> <i_f3d_flags>
0

> <s_epik_input>
W2NIXTFbY0hdW2NIXVtjSF1jKGMxMilbY0hdW2NIXWMobjIpQyg9TylbTkhdW0NAQEhdKFtDSDJdW0NIXShbQ0gzXSlbQ0gzXSlDKD1PKVtOSF1bQ0BASF0zQyg9TylbQ0gyXU9bQ0gyXTM=

> <s_epik_cmdline>
J2VwaWtfcHl0aG9uJywgJy1waHQnLCAnMC41JywgJy1waCcsICc3LjUnLCAnLW50JywgJy1tYScsICcyMDAnLCAnLWltYWUnLCAnPGluZmlsZS5tYWU+JywgJy1vbWFlJywgJzxvdXRmaWxlLm1hZT4n

> <r_lp_tautomer_probability>
1

> <r_epik_Ionization_Penalty>
  0.0001

> <r_epik_Ionization_Penalty_Charging>
  0.0000

> <r_epik_Ionization_Penalty_Neutral>
  0.0001

> <r_epik_State_Penalty>
 -0.0000

> <r_epik_Charging_Adjusted_Penalty>
0

> <i_epik_Tot_Q>
0

> <i_epik_Tot_abs_Q>
0

> <s_lp_Force_Field>
OPLS3e

> <r_lp_Energy>
26.108461

> <b_lp_Chiralities_Consistent>
1

> <s_lp_Variant>
sdf/inactives_sanitized.sdf:45-1

$$$$
sdf/inactives_sanitized.sdf:46
                    3D
 Schrodinger Suite 2020-1.
 49 50  0  0  1  0            999 V2000
    0.1775    0.4233   -0.1707 C   0  0  0  0  0  0
   -0.3612   -0.5446   -1.2873 C   0  0  0  0  0  0
   -1.8427   -0.9853   -1.2321 C   0  0  0  0  0  0
   -2.2832   -1.4009    0.1763 C   0  0  0  0  0  0
   -1.9884   -0.2918    1.1932 C   0  0  0  0  0  0
   -0.4945    0.0894    1.2110 C   0  0  0  0  0  0
    4.9148    1.5655    0.9759 C   0  0  0  0  0  0
    4.0336    0.4235    0.4183 C   0  0  0  0  0  0
    2.5553    0.5520    0.8131 C   0  0  0  0  0  0
    1.6599    0.3325   -0.1737 N   0  0  0  0  0  0
    2.2538    0.8362    1.9720 O   0  0  0  0  0  0
   -0.2093    1.9102   -0.4980 C   0  0  0  0  0  0
   -1.3649    2.1489   -1.1467 N   0  0  0  0  0  0
    0.5013    2.8431   -0.1138 O   0  0  0  0  0  0
   -1.8561    3.4718   -1.5231 C   0  0  0  0  0  0
   -1.0050    4.1328   -2.5282 C   0  0  0  0  0  0
   -0.3369    4.6514   -3.3180 N   0  0  0  0  0  0
    6.3905    1.4895    0.5215 C   0  0  0  0  0  0
    7.1635    0.2795    1.0995 C   0  0  0  0  0  0
    8.3389    0.8512    1.8999 C   0  0  0  0  0  0
    8.6057    2.2133    1.2671 C   0  0  0  0  0  0
    7.2088    2.7325    0.9262 C   0  0  0  0  0  0
   -0.0695   -0.1979   -2.2807 H   0  0  0  0  0  0
    0.2320   -1.4596   -1.2252 H   0  0  0  0  0  0
   -2.4886   -0.1836   -1.5888 H   0  0  0  0  0  0
   -2.0028   -1.8132   -1.9242 H   0  0  0  0  0  0
   -3.3484   -1.6357    0.1787 H   0  0  0  0  0  0
   -1.7666   -2.3162    0.4695 H   0  0  0  0  0  0
   -2.5906    0.5882    0.9633 H   0  0  0  0  0  0
   -2.2964   -0.6136    2.1889 H   0  0  0  0  0  0
    0.0499   -0.7547    1.6385 H   0  0  0  0  0  0
   -0.2920    0.8595    1.9577 H   0  0  0  0  0  0
    4.5021    2.5237    0.6534 H   0  0  0  0  0  0
    4.8768    1.5712    2.0672 H   0  0  0  0  0  0
    4.1256    0.3930   -0.6692 H   0  0  0  0  0  0
    4.3862   -0.5404    0.7860 H   0  0  0  0  0  0
    2.0568    0.3189   -1.1019 H   0  0  0  0  0  0
   -1.9104    1.3606   -1.4638 H   0  0  0  0  0  0
   -2.8565    3.3703   -1.9438 H   0  0  0  0  0  0
   -1.9399    4.1183   -0.6479 H   0  0  0  0  0  0
    6.4017    1.4240   -0.5683 H   0  0  0  0  0  0
    6.5469   -0.3596    1.7327 H   0  0  0  0  0  0
    7.5336   -0.3464    0.2858 H   0  0  0  0  0  0
    8.0539    0.9761    2.9462 H   0  0  0  0  0  0
    9.2152    0.2024    1.8728 H   0  0  0  0  0  0
    9.1479    2.8836    1.9351 H   0  0  0  0  0  0
    9.1987    2.0978    0.3582 H   0  0  0  0  0  0
    6.7707    3.2252    1.7962 H   0  0  0  0  0  0
    7.2480    3.4714    0.1248 H   0  0  0  0  0  0
  1  2  1  0  0  0
  1  6  1  0  0  0
  1 10  1  0  0  0
  1 12  1  0  0  0
  2  3  1  0  0  0
  2 23  1  0  0  0
  2 24  1  0  0  0
  3  4  1  0  0  0
  3 25  1  0  0  0
  3 26  1  0  0  0
  4  5  1  0  0  0
  4 27  1  0  0  0
  4 28  1  0  0  0
  5  6  1  0  0  0
  5 29  1  0  0  0
  5 30  1  0  0  0
  6 31  1  0  0  0
  6 32  1  0  0  0
  7  8  1  0  0  0
  7 18  1  0  0  0
  7 33  1  0  0  0
  7 34  1  0  0  0
  8  9  1  0  0  0
  8 35  1  0  0  0
  8 36  1  0  0  0
  9 10  1  0  0  0
  9 11  2  0  0  0
 10 37  1  0  0  0
 12 13  1  0  0  0
 12 14  2  0  0  0
 13 15  1  0  0  0
 13 38  1  0  0  0
 15 16  1  0  0  0
 15 39  1  0  0  0
 15 40  1  0  0  0
 16 17  3  0  0  0
 18 19  1  0  0  0
 18 22  1  0  0  0
 18 41  1  0  0  0
 19 20  1  0  0  0
 19 42  1  0  0  0
 19 43  1  0  0  0
 20 21  1  0  0  0
 20 44  1  0  0  0
 20 45  1  0  0  0
 21 22  1  0  0  0
 21 46  1  0  0  0
 21 47  1  0  0  0
 22 48  1  0  0  0
 22 49  1  0  0  0
M  END
> <chembl_id>
CHEMBL3218471

> <chembl_pref_name>
None

> <s_m_source_file>
sdf/inactives_sanitized.sdf

> <i_m_source_file_index>
46

> <i_lp_mmshare_version>
49012

> <i_m_ct_stereo_status>
1

> <i_f3d_flags>
0

> <s_epik_input>
W0NIMl0xW0NIMl1bQ0gyXVtDSDJdW0NIMl1DMShDKD1PKVtOSF1bQ0gyXUMjTilbTkhdQyg9TylbQ0gyXVtDSDJdW0NIXTJbQ0gyXVtDSDJdW0NIMl1bQ0gyXTI=

> <s_epik_cmdline>
J2VwaWtfcHl0aG9uJywgJy1waHQnLCAnMC41JywgJy1waCcsICc3LjUnLCAnLW50JywgJy1tYScsICcyMDAnLCAnLWltYWUnLCAnPGluZmlsZS5tYWU+JywgJy1vbWFlJywgJzxvdXRmaWxlLm1hZT4n

> <r_lp_tautomer_probability>
1

> <r_epik_Ionization_Penalty>
  0.0000

> <r_epik_Ionization_Penalty_Charging>
  0.0000

> <r_epik_Ionization_Penalty_Neutral>
  0.0000

> <r_epik_State_Penalty>
 -0.0000

> <r_epik_Charging_Adjusted_Penalty>
0

> <i_epik_Tot_Q>
0

> <i_epik_Tot_abs_Q>
0

> <s_lp_Force_Field>
OPLS3e

> <r_lp_Energy>
29.725538

> <b_lp_Chiralities_Consistent>
1

> <s_lp_Variant>
sdf/inactives_sanitized.sdf:46-1

$$$$
sdf/inactives_sanitized.sdf:47
                    3D
 Schrodinger Suite 2020-1.
 51 53  0  0  1  0            999 V2000
   -2.0132   -1.0592   -0.1369 C   0  0  1  0  0  0
   -3.6068    0.2391    0.3456 N   0  0  0  0  0  0
   -2.6678   -0.5471    1.1842 C   0  0  1  0  0  0
   -2.9742   -0.0780   -0.8573 C   0  0  0  0  0  0
   -0.5589   -0.8532   -0.2361 N   0  0  0  0  0  0
    0.1586    0.2904   -0.3224 C   0  0  0  0  0  0
    1.7218    0.1456   -0.3423 C   0  0  0  0  0  0
   -3.2892   -1.5155    1.9860 O   0  0  0  0  0  0
    1.9787   -0.9047    1.9650 C   0  0  0  0  0  0
    2.1404   -0.9342    0.5820 N   0  0  0  0  0  0
   -2.4712   -2.3602    2.6799 C   0  0  0  0  0  0
   -3.1415    0.2906   -2.0177 O   0  0  0  0  0  0
   -0.3645    1.3909   -0.5059 O   0  0  0  0  0  0
    1.4894    0.0170    2.6223 O   0  0  0  0  0  0
    2.4170   -2.0688    2.4788 O   0  0  0  0  0  0
   -1.2376   -2.3659    2.6846 O   0  0  0  0  0  0
    2.2921   -2.3445    3.8687 C   0  0  0  0  0  0
    2.5008   -3.8278    4.1080 C   0  0  0  0  0  0
    2.1804   -0.2009   -1.7781 C   0  0  0  0  0  0
    2.4620    1.4876   -0.1032 C   0  0  0  0  0  0
   -3.2611   -3.3679    3.5049 C   0  0  0  0  0  0
    1.4280   -4.7105    3.9621 C   0  0  0  0  0  0
    3.7621   -4.3056    4.4708 C   0  0  0  0  0  0
    2.2919    1.1332   -2.5320 C   0  0  0  0  0  0
    2.5439    2.2064   -1.4608 C   0  0  0  0  0  0
    3.9503   -5.6682    4.6878 C   0  0  0  0  0  0
    1.6170   -6.0727    4.1795 C   0  0  0  0  0  0
    2.8772   -6.5451    4.5413 C   0  0  0  0  0  0
   -2.1838   -2.1105   -0.3719 H   0  0  0  0  0  0
   -4.0818    1.1033    0.5625 H   0  0  0  0  0  0
   -2.0654    0.1055    1.8253 H   0  0  0  0  0  0
   -0.0186   -1.6847   -0.0467 H   0  0  0  0  0  0
    2.6146   -1.7305    0.1819 H   0  0  0  0  0  0
    3.0236   -1.7660    4.4352 H   0  0  0  0  0  0
    1.3062   -2.0609    4.2425 H   0  0  0  0  0  0
    3.1719   -0.6582   -1.7497 H   0  0  0  0  0  0
    1.5417   -0.9275   -2.2845 H   0  0  0  0  0  0
    2.0138    2.0953    0.6851 H   0  0  0  0  0  0
    3.4792    1.2840    0.2375 H   0  0  0  0  0  0
   -3.9438   -3.9294    2.8669 H   0  0  0  0  0  0
   -3.8422   -2.8555    4.2717 H   0  0  0  0  0  0
   -2.5907   -4.0737    3.9961 H   0  0  0  0  0  0
    0.4517   -4.3434    3.6803 H   0  0  0  0  0  0
    4.5941   -3.6257    4.5828 H   0  0  0  0  0  0
    3.0853    1.1080   -3.2800 H   0  0  0  0  0  0
    1.3595    1.3440   -3.0583 H   0  0  0  0  0  0
    1.7875    2.9898   -1.5254 H   0  0  0  0  0  0
    3.5145    2.6863   -1.5934 H   0  0  0  0  0  0
    4.9236   -6.0437    4.9680 H   0  0  0  0  0  0
    0.7910   -6.7595    4.0679 H   0  0  0  0  0  0
    3.0237   -7.6019    4.7094 H   0  0  0  0  0  0
  1  3  1  0  0  0
  1  4  1  0  0  0
  1  5  1  0  0  0
  1 29  1  0  0  0
  2  4  1  0  0  0
  2  3  1  0  0  0
  2 30  1  0  0  0
  3  8  1  0  0  0
  3 31  1  0  0  0
  4 12  2  0  0  0
  5  6  1  0  0  0
  5 32  1  0  0  0
  6  7  1  0  0  0
  6 13  2  0  0  0
  7 10  1  0  0  0
  7 19  1  0  0  0
  7 20  1  0  0  0
  8 11  1  0  0  0
  9 10  1  0  0  0
  9 14  2  0  0  0
  9 15  1  0  0  0
 10 33  1  0  0  0
 11 16  2  0  0  0
 11 21  1  0  0  0
 15 17  1  0  0  0
 17 18  1  0  0  0
 17 34  1  0  0  0
 17 35  1  0  0  0
 18 22  2  0  0  0
 18 23  1  0  0  0
 19 24  1  0  0  0
 19 36  1  0  0  0
 19 37  1  0  0  0
 20 25  1  0  0  0
 20 38  1  0  0  0
 20 39  1  0  0  0
 21 40  1  0  0  0
 21 41  1  0  0  0
 21 42  1  0  0  0
 22 27  1  0  0  0
 22 43  1  0  0  0
 23 26  2  0  0  0
 23 44  1  0  0  0
 24 25  1  0  0  0
 24 45  1  0  0  0
 24 46  1  0  0  0
 25 47  1  0  0  0
 25 48  1  0  0  0
 26 28  1  0  0  0
 26 49  1  0  0  0
 27 28  2  0  0  0
 27 50  1  0  0  0
 28 51  1  0  0  0
M  END
> <chembl_id>
CHEMBL62453

> <chembl_pref_name>
None

> <i_m_ct_stereo_status>
1

> <s_m_source_file>
sdf/inactives_sanitized.sdf

> <i_m_source_file_index>
47

> <i_lp_mmshare_version>
49012

> <i_f3d_flags>
0

> <s_epik_input>
Tz1DMVtOSF1bQ0BASF0oT0MoPU8pW0NIM10pW0NAQEhdMVtOSF1DKD1PKUMyKFtDSDJdW0NIMl1bQ0gyXVtDSDJdMilbTkhdQyg9TylPW0NIMl1jM1tjSF1bY0hdW2NIXVtjSF1bY0hdMw==

> <s_epik_cmdline>
J2VwaWtfcHl0aG9uJywgJy1waHQnLCAnMC41JywgJy1waCcsICc3LjUnLCAnLW50JywgJy1tYScsICcyMDAnLCAnLWltYWUnLCAnPGluZmlsZS5tYWU+JywgJy1vbWFlJywgJzxvdXRmaWxlLm1hZT4n

> <r_lp_tautomer_probability>
1

> <r_epik_Ionization_Penalty>
  0.0000

> <r_epik_Ionization_Penalty_Charging>
  0.0000

> <r_epik_Ionization_Penalty_Neutral>
  0.0000

> <r_epik_State_Penalty>
 -0.0000

> <r_epik_Charging_Adjusted_Penalty>
0

> <i_epik_Tot_Q>
0

> <i_epik_Tot_abs_Q>
0

> <s_epik_Chemistry_Notes>
This compound has an ester and may undergo hydrolysis at high or low pH. This compound contains an acetal/aminal-like group ( X-CH(R)-Y where X, Y are N, S, or O) that may be acid/base labile, releasing an aldehyde.

> <s_lp_Force_Field>
OPLS3e

> <r_lp_Energy>
46.445691

> <b_lp_Chiralities_Consistent>
1

> <s_lp_Variant>
sdf/inactives_sanitized.sdf:47-1

$$$$
sdf/inactives_sanitized.sdf:48
                    3D
 Schrodinger Suite 2020-1.
 83 85  0  0  1  0            999 V2000
    1.7483   -1.3363   -0.8168 C   0  0  0  0  0  0
   -0.6864    0.8052   -0.4675 C   0  0  0  0  0  0
    0.0423   -0.0494    0.2761 N   0  0  0  0  0  0
    1.5656   -0.9219   -2.3249 C   0  0  0  0  0  0
   -3.0498    1.6469   -2.5285 C   0  0  0  0  0  0
   -2.2228    0.6891   -0.3290 C   0  0  2  0  0  0
    1.5033   -0.2289    0.2124 C   0  0  1  0  0  0
   -2.9085    0.5863   -1.6362 N   0  0  0  0  0  0
    1.5770   -2.4545   -7.8709 N   0  3  1  0  0  0
    1.7278   -3.1040  -10.3169 C   0  0  0  0  0  0
    0.8305   -2.5200   -9.2241 C   0  0  0  0  0  0
    2.0737   -2.4933   -0.5396 O   0  0  0  0  0  0
    3.1366   -3.1109  -10.2005 C   0  0  0  0  0  0
   -0.1919    1.6398   -1.2263 O   0  0  0  0  0  0
   -2.7853    2.8331   -2.3212 O   0  0  0  0  0  0
    2.1526    0.0504   -2.8002 O   0  0  0  0  0  0
    1.1439   -3.6152  -11.4826 C   0  0  0  0  0  0
   -3.4971    1.1548   -3.6992 O   0  0  0  0  0  0
   -2.8059    1.7903    0.6079 C   0  0  0  0  0  0
    1.9212   -4.1108  -12.5259 C   0  0  0  0  0  0
    3.3066   -4.1000  -12.4178 C   0  0  0  0  0  0
    3.9044   -3.6032  -11.2630 C   0  0  0  0  0  0
    0.6767   -1.7136   -2.9507 N   0  0  0  0  0  0
    3.8261   -2.6210   -8.9292 C   0  0  0  0  0  0
    2.9302   -1.7343   -8.0478 C   0  0  0  0  0  0
   -3.6385    1.9887   -4.8424 C   0  0  0  0  0  0
    0.6761   -1.7641   -6.8184 C   0  0  0  0  0  0
   -3.6497    1.1256   -6.0902 C   0  0  0  0  0  0
    1.2077   -1.9898   -5.3918 C   0  0  0  0  0  0
    2.0972   -0.5851    1.5995 C   0  0  0  0  0  0
   -4.3288    1.7044    0.8734 C   0  0  0  0  0  0
    0.2132   -1.5070   -4.3204 C   0  0  0  0  0  0
   -2.4420    0.7397   -6.6775 C   0  0  0  0  0  0
   -4.8648    0.7178   -6.6450 C   0  0  0  0  0  0
   -4.8205    2.9278    1.6763 C   0  0  0  0  0  0
   -4.7421    0.3712    1.5333 C   0  0  0  0  0  0
    1.9185    0.5269    2.6468 C   0  0  0  0  0  0
   -2.4507   -0.0513   -7.8236 C   0  0  0  0  0  0
   -4.8720   -0.0752   -7.7898 C   0  0  0  0  0  0
   -3.6652   -0.4554   -8.3739 C   0  0  0  0  0  0
   -0.4399   -0.6770    0.9034 H   0  0  0  0  0  0
   -2.4331   -0.2680    0.1508 H   0  0  0  0  0  0
    1.9921    0.6922   -0.1157 H   0  0  0  0  0  0
   -3.0309   -0.3450   -2.0057 H   0  0  0  0  0  0
    0.5232   -1.5021   -9.4715 H   0  0  0  0  0  0
   -0.0573   -3.1300   -9.0478 H   0  0  0  0  0  0
    0.0684   -3.6172  -11.5874 H   0  0  0  0  0  0
   -2.2936    1.7457    1.5709 H   0  0  0  0  0  0
   -2.5686    2.7774    0.2092 H   0  0  0  0  0  0
    1.4497   -4.4964  -13.4183 H   0  0  0  0  0  0
    3.9165   -4.4804  -13.2241 H   0  0  0  0  0  0
    4.9823   -3.6133  -11.1869 H   0  0  0  0  0  0
    0.2578   -2.4762   -2.4382 H   0  0  0  0  0  0
    4.1375   -3.4921   -8.3504 H   0  0  0  0  0  0
    4.7433   -2.0844   -9.1758 H   0  0  0  0  0  0
    3.3786   -1.5769   -7.0679 H   0  0  0  0  0  0
    2.7275   -0.7620   -8.5013 H   0  0  0  0  0  0
   -4.5621    2.5652   -4.7735 H   0  0  0  0  0  0
   -2.8217    2.7092   -4.9187 H   0  0  0  0  0  0
    0.6101   -0.7095   -7.0918 H   0  0  0  0  0  0
   -0.3048   -2.2295   -6.9284 H   0  0  0  0  0  0
    1.4224   -3.0492   -5.2436 H   0  0  0  0  0  0
    2.1491   -1.4579   -5.2575 H   0  0  0  0  0  0
    1.6378   -1.4965    1.9873 H   0  0  0  0  0  0
    3.1640   -0.7953    1.5021 H   0  0  0  0  0  0
   -4.8342    1.7562   -0.0916 H   0  0  0  0  0  0
   -0.0390   -0.4566   -4.4847 H   0  0  0  0  0  0
   -0.7355   -2.0308   -4.4440 H   0  0  0  0  0  0
   -1.5009    1.0527   -6.2485 H   0  0  0  0  0  0
   -5.8004    1.0124   -6.1915 H   0  0  0  0  0  0
   -5.1641    2.6647    2.6766 H   0  0  0  0  0  0
   -5.6508    3.4159    1.1656 H   0  0  0  0  0  0
   -4.0384    3.6773    1.8014 H   0  0  0  0  0  0
   -3.8929   -0.1420    1.9849 H   0  0  0  0  0  0
   -5.1767   -0.3031    0.7948 H   0  0  0  0  0  0
   -5.4877    0.5037    2.3173 H   0  0  0  0  0  0
    2.3788    0.2458    3.5943 H   0  0  0  0  0  0
    0.8650    0.7301    2.8407 H   0  0  0  0  0  0
    2.3831    1.4571    2.3180 H   0  0  0  0  0  0
   -1.5220   -0.3484   -8.2866 H   0  0  0  0  0  0
   -5.8089   -0.3928   -8.2235 H   0  0  0  0  0  0
   -3.6722   -1.0687   -9.2629 H   0  0  0  0  0  0
    1.7599   -3.4008   -7.5670 H   0  0  0  0  0  0
  1  4  1  0  0  0
  1  7  1  0  0  0
  1 12  2  0  0  0
  2  3  1  0  0  0
  2  6  1  0  0  0
  2 14  2  0  0  0
  3  7  1  0  0  0
  3 41  1  0  0  0
  4 16  2  0  0  0
  4 23  1  0  0  0
  5  8  1  0  0  0
  5 15  2  0  0  0
  5 18  1  0  0  0
  6  8  1  0  0  0
  6 19  1  0  0  0
  6 42  1  0  0  0
  7 30  1  0  0  0
  7 43  1  0  0  0
  8 44  1  0  0  0
  9 27  1  0  0  0
  9 11  1  0  0  0
  9 25  1  0  0  0
  9 83  1  0  0  0
 10 11  1  0  0  0
 10 17  2  0  0  0
 10 13  1  0  0  0
 11 45  1  0  0  0
 11 46  1  0  0  0
 13 24  1  0  0  0
 13 22  2  0  0  0
 17 20  1  0  0  0
 17 47  1  0  0  0
 18 26  1  0  0  0
 19 31  1  0  0  0
 19 48  1  0  0  0
 19 49  1  0  0  0
 20 21  2  0  0  0
 20 50  1  0  0  0
 21 22  1  0  0  0
 21 51  1  0  0  0
 22 52  1  0  0  0
 23 32  1  0  0  0
 23 53  1  0  0  0
 24 25  1  0  0  0
 24 54  1  0  0  0
 24 55  1  0  0  0
 25 56  1  0  0  0
 25 57  1  0  0  0
 26 28  1  0  0  0
 26 58  1  0  0  0
 26 59  1  0  0  0
 27 29  1  0  0  0
 27 60  1  0  0  0
 27 61  1  0  0  0
 28 33  2  0  0  0
 28 34  1  0  0  0
 29 32  1  0  0  0
 29 62  1  0  0  0
 29 63  1  0  0  0
 30 37  1  0  0  0
 30 64  1  0  0  0
 30 65  1  0  0  0
 31 35  1  0  0  0
 31 36  1  0  0  0
 31 66  1  0  0  0
 32 67  1  0  0  0
 32 68  1  0  0  0
 33 38  1  0  0  0
 33 69  1  0  0  0
 34 39  2  0  0  0
 34 70  1  0  0  0
 35 71  1  0  0  0
 35 72  1  0  0  0
 35 73  1  0  0  0
 36 74  1  0  0  0
 36 75  1  0  0  0
 36 76  1  0  0  0
 37 77  1  0  0  0
 37 78  1  0  0  0
 37 79  1  0  0  0
 38 40  2  0  0  0
 38 80  1  0  0  0
 39 40  1  0  0  0
 39 81  1  0  0  0
 40 82  1  0  0  0
M  CHG  1   9   1
M  END
> <chembl_id>
CHEMBL3706738

> <chembl_pref_name>
None

> <s_m_source_file>
sdf/inactives_sanitized.sdf

> <i_m_source_file_index>
48

> <i_lp_mmshare_version>
49012

> <i_m_ct_stereo_status>
1

> <i_f3d_flags>
0

> <s_epik_input>
W2NIXTFbY0hdW2NIXVtjSF1jKGMxMilbQ0gyXVtDSDJdTihbQ0gyXTIpW0NIMl1bQ0gyXVtDSDJdW05IXUMoPU8pQyg9TylbQ0BIXShbQ0gyXVtDSDNdKVtOSF1DKD1PKVtDQEBIXShbQ0gyXVtDSF0oW0NIM10pW0NIM10pW05IXUMoPU8pT1tDSDJdYzNbY0hdW2NIXVtjSF1bY0hdW2NIXTM=

> <s_epik_cmdline>
J2VwaWtfcHl0aG9uJywgJy1waHQnLCAnMC41JywgJy1waCcsICc3LjUnLCAnLW50JywgJy1tYScsICcyMDAnLCAnLWltYWUnLCAnPGluZmlsZS5tYWU+JywgJy1vbWFlJywgJzxvdXRmaWxlLm1hZT4n

> <r_lp_tautomer_probability>
0.99990000499975

> <r_epik_Ionization_Penalty>
  0.0552

> <r_epik_Ionization_Penalty_Charging>
  0.0552

> <r_epik_Ionization_Penalty_Neutral>
  0.0000

> <r_epik_State_Penalty>
  0.0476

> <r_epik_Charging_Adjusted_Penalty>
0.102806860217392

> <i_epik_Tot_Q>
1

> <i_epik_Tot_abs_Q>
1

> <s_epik_Chemistry_Notes>
This compound has an ester and may undergo hydrolysis at high or low pH.

> <s_lp_Force_Field>
OPLS3e

> <r_lp_Energy>
55.809427

> <b_lp_Chiralities_Consistent>
1

> <s_lp_Variant>
sdf/inactives_sanitized.sdf:48-1

$$$$
sdf/inactives_sanitized.sdf:49
                    3D
 Schrodinger Suite 2020-1.
 75 76  0  0  1  0            999 V2000
    1.5707   -0.9586   -1.6330 C   0  0  0  0  0  0
   -0.8879    0.7609   -0.6291 C   0  0  0  0  0  0
    3.0963   -0.8050   -2.0421 C   0  0  0  0  0  0
   -0.2090   -0.2629   -0.0728 N   0  0  0  0  0  0
   -3.2397    2.9045   -1.4567 C   0  0  0  0  0  0
   -2.4060    0.7974   -0.3244 C   0  0  2  0  0  0
    1.2354   -0.5390   -0.1943 C   0  0  1  0  0  0
   -3.2193    1.5170   -1.3300 N   0  0  0  0  0  0
    3.3277   -1.1648   -3.3193 N   0  0  0  0  0  0
    0.7410   -1.3746   -2.4500 O   0  0  0  0  0  0
   -0.3587    1.6337   -1.3193 O   0  0  0  0  0  0
    7.2346   -4.3901   -2.6844 C   0  0  0  0  0  0
   -2.6553    3.7230   -0.7431 O   0  0  0  0  0  0
    3.9407   -0.3914   -1.2454 O   0  0  0  0  0  0
   -4.0076    3.2234   -2.5157 O   0  0  0  0  0  0
   -2.6961    1.2411    1.1445 C   0  0  0  0  0  0
    7.3470   -3.1400   -2.0731 C   0  0  0  0  0  0
    6.2985   -4.6310   -3.6918 C   0  0  0  0  0  0
    5.5381   -2.3277   -3.4852 C   0  0  0  0  0  0
    4.6427   -1.1877   -3.9584 C   0  0  0  0  0  0
    6.4957   -2.1057   -2.4925 C   0  0  0  0  0  0
    5.4518   -3.5841   -4.0903 C   0  0  0  0  0  0
   -4.1960    4.5810   -2.9019 C   0  0  0  0  0  0
    8.3043   -3.0133   -1.0850 O   0  0  0  0  0  0
    6.2774   -5.9034   -4.2298 O   0  0  0  0  0  0
   -4.9929    4.6571   -4.1957 C   0  0  0  0  0  0
    1.6798   -1.6399    0.8053 C   0  0  0  0  0  0
   -4.1785    1.1709    1.5855 C   0  0  0  0  0  0
    8.4289   -1.7734   -0.3964 C   0  0  0  0  0  0
    5.3408   -6.2061   -5.2581 C   0  0  0  0  0  0
   -6.0742    5.5370   -4.2893 C   0  0  0  0  0  0
   -4.6363    3.8675   -5.2939 C   0  0  0  0  0  0
   -4.3679    1.7874    2.9885 C   0  0  0  0  0  0
   -4.7545   -0.2583    1.4938 C   0  0  0  0  0  0
    1.4247   -1.2803    2.2791 C   0  0  0  0  0  0
   -6.8016    5.6221   -5.4739 C   0  0  0  0  0  0
   -5.3643    3.9524   -6.4778 C   0  0  0  0  0  0
   -6.4436    4.8295   -6.5624 C   0  0  0  0  0  0
   -0.7221   -0.9275    0.4876 H   0  0  0  0  0  0
   -2.7481   -0.2342   -0.4166 H   0  0  0  0  0  0
    1.7564    0.3861    0.0646 H   0  0  0  0  0  0
   -3.5759    0.9729   -2.1020 H   0  0  0  0  0  0
    2.5513   -1.4965   -3.8735 H   0  0  0  0  0  0
    7.8890   -5.1907   -2.3706 H   0  0  0  0  0  0
   -2.1161    0.6218    1.8312 H   0  0  0  0  0  0
   -2.3245    2.2544    1.3012 H   0  0  0  0  0  0
    5.1477   -0.2291   -3.8191 H   0  0  0  0  0  0
    4.4905   -1.2833   -5.0343 H   0  0  0  0  0  0
    6.5603   -1.1235   -2.0484 H   0  0  0  0  0  0
    4.7178   -3.7327   -4.8682 H   0  0  0  0  0  0
   -4.7220    5.1132   -2.1071 H   0  0  0  0  0  0
   -3.2346    5.0757   -3.0507 H   0  0  0  0  0  0
    1.1606   -2.5751    0.5869 H   0  0  0  0  0  0
    2.7447   -1.8510    0.6935 H   0  0  0  0  0  0
   -4.7563    1.7954    0.9033 H   0  0  0  0  0  0
    9.2112   -1.8575    0.3577 H   0  0  0  0  0  0
    7.5036   -1.5063    0.1167 H   0  0  0  0  0  0
    8.7094   -0.9653   -1.0739 H   0  0  0  0  0  0
    5.4653   -7.2448   -5.5641 H   0  0  0  0  0  0
    5.4982   -5.5823   -6.1394 H   0  0  0  0  0  0
    4.3134   -6.0851   -4.9112 H   0  0  0  0  0  0
   -6.3524    6.1550   -3.4478 H   0  0  0  0  0  0
   -3.7971    3.1898   -5.2315 H   0  0  0  0  0  0
   -4.6664    1.0522    3.7359 H   0  0  0  0  0  0
   -5.1362    2.5610    2.9694 H   0  0  0  0  0  0
   -3.4543    2.2546    3.3577 H   0  0  0  0  0  0
   -3.9693   -1.0121    1.4327 H   0  0  0  0  0  0
   -5.3781   -0.3635    0.6056 H   0  0  0  0  0  0
   -5.3781   -0.5171    2.3496 H   0  0  0  0  0  0
    1.7867   -2.0691    2.9391 H   0  0  0  0  0  0
    0.3623   -1.1445    2.4829 H   0  0  0  0  0  0
    1.9388   -0.3587    2.5540 H   0  0  0  0  0  0
   -7.6385    6.3007   -5.5492 H   0  0  0  0  0  0
   -5.0924    3.3426   -7.3266 H   0  0  0  0  0  0
   -7.0073    4.8965   -7.4815 H   0  0  0  0  0  0
  1  3  1  0  0  0
  1  7  1  0  0  0
  1 10  2  0  0  0
  2  4  1  0  0  0
  2  6  1  0  0  0
  2 11  2  0  0  0
  3  9  1  0  0  0
  3 14  2  0  0  0
  4  7  1  0  0  0
  4 39  1  0  0  0
  5  8  1  0  0  0
  5 13  2  0  0  0
  5 15  1  0  0  0
  6  8  1  0  0  0
  6 16  1  0  0  0
  6 40  1  0  0  0
  7 27  1  0  0  0
  7 41  1  0  0  0
  8 42  1  0  0  0
  9 20  1  0  0  0
  9 43  1  0  0  0
 12 18  2  0  0  0
 12 17  1  0  0  0
 12 44  1  0  0  0
 15 23  1  0  0  0
 16 28  1  0  0  0
 16 45  1  0  0  0
 16 46  1  0  0  0
 17 21  2  0  0  0
 17 24  1  0  0  0
 18 22  1  0  0  0
 18 25  1  0  0  0
 19 20  1  0  0  0
 19 21  1  0  0  0
 19 22  2  0  0  0
 20 47  1  0  0  0
 20 48  1  0  0  0
 21 49  1  0  0  0
 22 50  1  0  0  0
 23 26  1  0  0  0
 23 51  1  0  0  0
 23 52  1  0  0  0
 24 29  1  0  0  0
 25 30  1  0  0  0
 26 31  2  0  0  0
 26 32  1  0  0  0
 27 35  1  0  0  0
 27 53  1  0  0  0
 27 54  1  0  0  0
 28 33  1  0  0  0
 28 34  1  0  0  0
 28 55  1  0  0  0
 29 56  1  0  0  0
 29 57  1  0  0  0
 29 58  1  0  0  0
 30 59  1  0  0  0
 30 60  1  0  0  0
 30 61  1  0  0  0
 31 36  1  0  0  0
 31 62  1  0  0  0
 32 37  2  0  0  0
 32 63  1  0  0  0
 33 64  1  0  0  0
 33 65  1  0  0  0
 33 66  1  0  0  0
 34 67  1  0  0  0
 34 68  1  0  0  0
 34 69  1  0  0  0
 35 70  1  0  0  0
 35 71  1  0  0  0
 35 72  1  0  0  0
 36 38  2  0  0  0
 36 73  1  0  0  0
 37 38  1  0  0  0
 37 74  1  0  0  0
 38 75  1  0  0  0
M  END
> <chembl_id>
CHEMBL335293

> <chembl_pref_name>
None

> <s_m_source_file>
sdf/inactives_sanitized.sdf

> <i_m_source_file_index>
49

> <i_lp_mmshare_version>
49012

> <i_m_ct_stereo_status>
1

> <i_f3d_flags>
0

> <s_epik_input>
W0NIM11PYzFbY0hdYyhPW0NIM10pW2NIXWMoW2NIXTEpW0NIMl1bTkhdQyg9TylDKD1PKVtDQEhdKFtDSDJdW0NIM10pW05IXUMoPU8pW0NAQEhdKFtDSDJdW0NIXShbQ0gzXSlbQ0gzXSlbTkhdQyg9TylPW0NIMl1jMltjSF1bY0hdW2NIXVtjSF1bY0hdMg==

> <s_epik_cmdline>
J2VwaWtfcHl0aG9uJywgJy1waHQnLCAnMC41JywgJy1waCcsICc3LjUnLCAnLW50JywgJy1tYScsICcyMDAnLCAnLWltYWUnLCAnPGluZmlsZS5tYWU+JywgJy1vbWFlJywgJzxvdXRmaWxlLm1hZT4n

> <r_lp_tautomer_probability>
1

> <r_epik_Ionization_Penalty>
  0.0000

> <r_epik_Ionization_Penalty_Charging>
  0.0000

> <r_epik_Ionization_Penalty_Neutral>
  0.0000

> <r_epik_State_Penalty>
 -0.0000

> <r_epik_Charging_Adjusted_Penalty>
0

> <i_epik_Tot_Q>
0

> <i_epik_Tot_abs_Q>
0

> <s_epik_Chemistry_Notes>
This compound has an ester and may undergo hydrolysis at high or low pH.

> <s_lp_Force_Field>
OPLS3e

> <r_lp_Energy>
46.583813

> <b_lp_Chiralities_Consistent>
1

> <s_lp_Variant>
sdf/inactives_sanitized.sdf:49-1

$$$$
sdf/inactives_sanitized.sdf:50
                    3D
 Schrodinger Suite 2020-1.
 82 85  0  0  1  0            999 V2000
    2.3629   -2.1077   -1.4409 C   0  0  0  0  0  0
   -2.4366    1.3946   -1.5964 C   0  0  0  0  0  0
   -1.9590    1.4544   -0.1363 C   0  0  2  0  0  0
    0.0805   -0.0869   -0.2441 C   0  0  0  0  0  0
    2.3020   -0.7829   -1.1907 N   0  0  0  0  0  0
   -0.5243    1.1045   -0.0529 N   0  0  0  0  0  0
   -3.5941    2.4117   -1.9766 C   0  0  0  0  0  0
    1.6154   -0.0771   -0.0993 C   0  0  2  0  0  0
    3.1488   -2.5432   -2.7102 C   0  0  0  0  0  0
   -4.1561    2.1279   -3.1671 N   0  0  0  0  0  0
    1.7997   -2.9464   -0.7356 O   0  0  0  0  0  0
   -1.9692    0.6427   -2.4585 O   0  0  0  0  0  0
   -2.8058    0.5729    0.8304 C   0  0  0  0  0  0
   -0.5139   -1.1360   -0.4897 O   0  0  0  0  0  0
   -4.7841    5.3355   -3.6513 N   0  0  0  0  0  0
   -3.9116    3.3401   -1.2317 O   0  0  0  0  0  0
    2.1005   -0.5748    1.2906 C   0  0  0  0  0  0
    3.4190   -4.0576   -2.7753 C   0  0  0  0  0  0
    4.4148   -1.7057   -2.9750 C   0  0  0  0  0  0
   -5.1974    2.9224   -3.8181 C   0  0  0  0  0  0
   -4.6873    4.2228   -4.4284 C   0  0  0  0  0  0
   -4.2398    1.0169    1.0697 C   0  0  0  0  0  0
    1.5975    0.2300    2.5140 C   0  0  0  0  0  0
   -4.3598    6.5150   -4.1730 C   0  0  0  0  0  0
    4.1903   -4.7014   -1.7975 C   0  0  0  0  0  0
    5.4013   -1.5436   -1.9918 C   0  0  0  0  0  0
    4.5781   -1.0869   -4.2200 C   0  0  0  0  0  0
    2.8705   -4.8094   -3.8212 C   0  0  0  0  0  0
   -4.1954    4.2592   -5.7381 C   0  0  0  0  0  0
   -4.5102    2.1120    1.9173 C   0  0  0  0  0  0
   -5.2981    0.4429    0.3324 C   0  0  0  0  0  0
    1.9966    1.7205    2.4536 C   0  0  0  0  0  0
    2.0458   -0.4381    3.8319 C   0  0  0  0  0  0
   -3.8456    6.6312   -5.4658 C   0  0  0  0  0  0
    3.0952   -6.1814   -3.8945 C   0  0  0  0  0  0
    4.4143   -6.0735   -1.8701 C   0  0  0  0  0  0
    6.5348   -0.7789   -2.2532 C   0  0  0  0  0  0
    5.7114   -0.3216   -4.4814 C   0  0  0  0  0  0
   -5.8117    2.5747    2.0597 C   0  0  0  0  0  0
   -3.7661    5.4829   -6.2563 C   0  0  0  0  0  0
   -6.5923    0.9210    0.4886 C   0  0  0  0  0  0
    3.8666   -6.8074   -2.9189 C   0  0  0  0  0  0
   -6.8483    1.9787    1.3521 C   0  0  0  0  0  0
    6.6852   -0.1719   -3.4973 C   0  0  0  0  0  0
   -1.9888    2.4842    0.2230 H   0  0  0  0  0  0
    2.7838   -0.1722   -1.8341 H   0  0  0  0  0  0
    0.0739    1.8919    0.1506 H   0  0  0  0  0  0
    1.9411    0.9567   -0.2175 H   0  0  0  0  0  0
    2.4476   -2.3170   -3.5164 H   0  0  0  0  0  0
   -3.7968    1.3426   -3.6908 H   0  0  0  0  0  0
   -2.8226   -0.4658    0.4971 H   0  0  0  0  0  0
   -2.3196    0.5572    1.8074 H   0  0  0  0  0  0
    1.7979   -1.6134    1.4260 H   0  0  0  0  0  0
    3.1915   -0.5789    1.3027 H   0  0  0  0  0  0
   -5.6439    2.3148   -4.6063 H   0  0  0  0  0  0
   -6.0042    3.1299   -3.1110 H   0  0  0  0  0  0
    0.5077    0.1870    2.5143 H   0  0  0  0  0  0
   -4.4402    7.3807   -3.5324 H   0  0  0  0  0  0
    4.6092   -4.1452   -0.9729 H   0  0  0  0  0  0
    5.2905   -2.0025   -1.0207 H   0  0  0  0  0  0
    3.8292   -1.1992   -4.9908 H   0  0  0  0  0  0
    2.2688   -4.3336   -4.5819 H   0  0  0  0  0  0
   -4.1424    3.3629   -6.3388 H   0  0  0  0  0  0
   -3.7069    2.5945    2.4544 H   0  0  0  0  0  0
   -5.1049   -0.3658   -0.3572 H   0  0  0  0  0  0
    2.7858    1.9043    1.7246 H   0  0  0  0  0  0
    2.3550    2.1000    3.4104 H   0  0  0  0  0  0
    1.1413    2.3353    2.1725 H   0  0  0  0  0  0
    2.7660    0.1636    4.3861 H   0  0  0  0  0  0
    2.5162   -1.4068    3.6604 H   0  0  0  0  0  0
    1.1925   -0.6099    4.4885 H   0  0  0  0  0  0
   -3.5191    7.5876   -5.8473 H   0  0  0  0  0  0
    2.6713   -6.7578   -4.7037 H   0  0  0  0  0  0
    5.0065   -6.5668   -1.1135 H   0  0  0  0  0  0
    7.2932   -0.6560   -1.4942 H   0  0  0  0  0  0
    5.8351    0.1532   -5.4436 H   0  0  0  0  0  0
   -6.0173    3.4072    2.7162 H   0  0  0  0  0  0
   -3.3764    5.5409   -7.2620 H   0  0  0  0  0  0
   -7.4013    0.4744   -0.0703 H   0  0  0  0  0  0
    4.0385   -7.8721   -2.9743 H   0  0  0  0  0  0
   -7.8572    2.3470    1.4656 H   0  0  0  0  0  0
    7.5645    0.4214   -3.7006 H   0  0  0  0  0  0
  1  5  1  0  0  0
  1  9  1  0  0  0
  1 11  2  0  0  0
  2  3  1  0  0  0
  2  7  1  0  0  0
  2 12  2  0  0  0
  3  6  1  0  0  0
  3 13  1  0  0  0
  3 45  1  0  0  0
  4  8  1  0  0  0
  4  6  1  0  0  0
  4 14  2  0  0  0
  5  8  1  0  0  0
  5 46  1  0  0  0
  6 47  1  0  0  0
  7 10  1  0  0  0
  7 16  2  0  0  0
  8 17  1  0  0  0
  8 48  1  0  0  0
  9 18  1  0  0  0
  9 19  1  0  0  0
  9 49  1  0  0  0
 10 20  1  0  0  0
 10 50  1  0  0  0
 13 22  1  0  0  0
 13 51  1  0  0  0
 13 52  1  0  0  0
 15 21  2  0  0  0
 15 24  1  0  0  0
 17 23  1  0  0  0
 17 53  1  0  0  0
 17 54  1  0  0  0
 18 25  2  0  0  0
 18 28  1  0  0  0
 19 26  2  0  0  0
 19 27  1  0  0  0
 20 21  1  0  0  0
 20 55  1  0  0  0
 20 56  1  0  0  0
 21 29  1  0  0  0
 22 30  2  0  0  0
 22 31  1  0  0  0
 23 32  1  0  0  0
 23 33  1  0  0  0
 23 57  1  0  0  0
 24 34  2  0  0  0
 24 58  1  0  0  0
 25 36  1  0  0  0
 25 59  1  0  0  0
 26 37  1  0  0  0
 26 60  1  0  0  0
 27 38  2  0  0  0
 27 61  1  0  0  0
 28 35  2  0  0  0
 28 62  1  0  0  0
 29 40  2  0  0  0
 29 63  1  0  0  0
 30 39  1  0  0  0
 30 64  1  0  0  0
 31 41  2  0  0  0
 31 65  1  0  0  0
 32 66  1  0  0  0
 32 67  1  0  0  0
 32 68  1  0  0  0
 33 69  1  0  0  0
 33 70  1  0  0  0
 33 71  1  0  0  0
 34 40  1  0  0  0
 34 72  1  0  0  0
 35 42  1  0  0  0
 35 73  1  0  0  0
 36 42  2  0  0  0
 36 74  1  0  0  0
 37 44  2  0  0  0
 37 75  1  0  0  0
 38 44  1  0  0  0
 38 76  1  0  0  0
 39 43  2  0  0  0
 39 77  1  0  0  0
 40 78  1  0  0  0
 41 43  1  0  0  0
 41 79  1  0  0  0
 42 80  1  0  0  0
 43 81  1  0  0  0
 44 82  1  0  0  0
M  END
> <chembl_id>
CHEMBL129492

> <chembl_pref_name>
None

> <s_m_source_file>
sdf/inactives_sanitized.sdf

> <i_m_source_file_index>
50

> <i_lp_mmshare_version>
49012

> <i_m_ct_stereo_status>
1

> <i_f3d_flags>
0

> <s_epik_input>
W2NIXTFbY0hdW2NIXVtjSF1bY0hdYzFbQ0hdKGMyW2NIXVtjSF1bY0hdW2NIXVtjSF0yKUMoPU8pW05IXVtDQEhdKFtDSDJdW0NIXShbQ0gzXSlbQ0gzXSlDKD1PKVtOSF1bQ0BIXShbQ0gyXWMzW2NIXVtjSF1bY0hdW2NIXVtjSF0zKUMoPU8pQyg9TylbTkhdW0NIMl1jNG5bY0hdW2NIXVtjSF1bY0hdNA==

> <s_epik_cmdline>
J2VwaWtfcHl0aG9uJywgJy1waHQnLCAnMC41JywgJy1waCcsICc3LjUnLCAnLW50JywgJy1tYScsICcyMDAnLCAnLWltYWUnLCAnPGluZmlsZS5tYWU+JywgJy1vbWFlJywgJzxvdXRmaWxlLm1hZT4n

> <r_lp_tautomer_probability>
1

> <r_epik_Ionization_Penalty>
  0.0011

> <r_epik_Ionization_Penalty_Charging>
  0.0000

> <r_epik_Ionization_Penalty_Neutral>
  0.0011

> <r_epik_State_Penalty>
 -0.0000

> <r_epik_Charging_Adjusted_Penalty>
0

> <i_epik_Tot_Q>
0

> <i_epik_Tot_abs_Q>
0

> <s_lp_Force_Field>
OPLS3e

> <r_lp_Energy>
66.758452

> <b_lp_Chiralities_Consistent>
1

> <s_lp_Variant>
sdf/inactives_sanitized.sdf:50-1

$$$$
sdf/inactives_sanitized.sdf:51
                    3D
 Schrodinger Suite 2020-1.
 73 74  0  0  1  0            999 V2000
   -2.2514   -0.4314    1.4319 N   0  0  0  0  0  0
   -3.2041   -0.2591    2.3820 C   0  0  0  0  0  0
   -0.2646   -1.1869    0.3688 C   0  0  1  0  0  0
   -0.8447    0.0182   -0.3721 C   0  0  0  0  0  0
    2.1362   -1.5068   -0.2209 C   0  0  0  0  0  0
    1.1753   -1.0119    0.5798 N   0  0  0  0  0  0
   -2.2886    0.1512    0.0884 C   0  0  0  0  0  0
   -1.0484   -1.2253    1.6848 C   0  0  0  0  0  0
    4.6544   -3.3656    0.5313 C   0  0  0  0  0  0
    3.5898   -1.1370    0.1646 C   0  0  1  0  0  0
   -4.4371    0.6261    2.0390 C   0  0  1  0  0  0
    4.5592   -2.1852   -0.1971 N   0  0  0  0  0  0
   -5.6163    0.0743    2.8056 N   0  3  0  0  0  0
   -3.1214   -0.7620    3.5073 O   0  0  0  0  0  0
   -0.2708    0.7567   -1.1725 O   0  0  0  0  0  0
    1.9123   -2.1757   -1.2317 O   0  0  0  0  0  0
    3.9970   -3.6627    1.5324 O   0  0  0  0  0  0
    5.5966   -4.1459   -0.0312 O   0  0  0  0  0  0
    3.9966    0.2089   -0.5011 C   0  0  0  0  0  0
   -4.1776    2.1068    2.4207 C   0  0  0  0  0  0
    5.9118   -5.4188    0.5187 C   0  0  0  0  0  0
    7.0898   -6.0135   -0.2299 C   0  0  0  0  0  0
   -6.2480   -1.2107    2.2437 C   0  0  0  0  0  0
   -5.3366    3.0777    2.0925 C   0  0  0  0  0  0
    5.2591    0.8917    0.0857 C   0  0  0  0  0  0
    8.3922   -5.6752    0.1451 C   0  0  0  0  0  0
    6.8686   -6.8935   -1.2919 C   0  0  0  0  0  0
    5.3239    2.3826   -0.3166 C   0  0  0  0  0  0
   -5.6652    3.1140    0.5838 C   0  0  0  0  0  0
   -5.0560    4.4851    2.6627 C   0  0  0  0  0  0
    6.5697    0.1539   -0.2636 C   0  0  0  0  0  0
    9.4746   -6.2178   -0.5428 C   0  0  0  0  0  0
    7.9516   -7.4364   -1.9787 C   0  0  0  0  0  0
    9.2493   -7.0963   -1.6010 C   0  0  0  0  0  0
   -0.5102   -2.0783   -0.2133 H   0  0  0  0  0  0
    1.4489   -0.4696    1.3867 H   0  0  0  0  0  0
   -2.6020    1.1954    0.0856 H   0  0  0  0  0  0
   -2.9460   -0.4239   -0.5648 H   0  0  0  0  0  0
   -1.2942   -2.2576    1.9390 H   0  0  0  0  0  0
   -0.4643   -0.7704    2.4872 H   0  0  0  0  0  0
    3.6208   -0.9840    1.2468 H   0  0  0  0  0  0
   -4.7044    0.5405    0.9851 H   0  0  0  0  0  0
    5.0831   -2.0867   -1.0545 H   0  0  0  0  0  0
   -5.3189   -0.0617    3.7620 H   0  0  0  0  0  0
    4.0970    0.0930   -1.5822 H   0  0  0  0  0  0
    3.1682    0.9087   -0.3689 H   0  0  0  0  0  0
   -3.9620    2.1685    3.4897 H   0  0  0  0  0  0
   -3.2843    2.4701    1.9090 H   0  0  0  0  0  0
    6.1633   -5.3336    1.5776 H   0  0  0  0  0  0
    5.0521   -6.0878    0.4499 H   0  0  0  0  0  0
   -7.0941   -1.4396    2.8916 H   0  0  0  0  0  0
   -5.4938   -1.9975    2.2787 H   0  0  0  0  0  0
   -6.5707   -0.9943    1.2247 H   0  0  0  0  0  0
   -6.2266    2.7150    2.6080 H   0  0  0  0  0  0
    5.1586    0.8749    1.1719 H   0  0  0  0  0  0
    8.5658   -4.9926    0.9646 H   0  0  0  0  0  0
    5.8624   -7.1557   -1.5858 H   0  0  0  0  0  0
    4.4451    2.6995   -0.8792 H   0  0  0  0  0  0
    6.1879    2.6145   -0.9396 H   0  0  0  0  0  0
    5.3836    3.0187    0.5672 H   0  0  0  0  0  0
   -4.8681    2.6789   -0.0199 H   0  0  0  0  0  0
   -5.8276    4.1258    0.2117 H   0  0  0  0  0  0
   -6.5760    2.5519    0.3750 H   0  0  0  0  0  0
   -4.9230    5.2374    1.8852 H   0  0  0  0  0  0
   -4.1536    4.5074    3.2748 H   0  0  0  0  0  0
   -5.8793    4.8176    3.2959 H   0  0  0  0  0  0
    6.4611   -0.4714   -1.1497 H   0  0  0  0  0  0
    6.8780   -0.4922    0.5588 H   0  0  0  0  0  0
    7.3990    0.8352   -0.4545 H   0  0  0  0  0  0
   10.4836   -5.9586   -0.2577 H   0  0  0  0  0  0
    7.7861   -8.1170   -2.8007 H   0  0  0  0  0  0
   10.0892   -7.5170   -2.1343 H   0  0  0  0  0  0
   -6.3189    0.8004    2.8035 H   0  0  0  0  0  0
  1  2  1  0  0  0
  1  7  1  0  0  0
  1  8  1  0  0  0
  2 11  1  0  0  0
  2 14  2  0  0  0
  3  8  1  0  0  0
  3  6  1  0  0  0
  3  4  1  0  0  0
  3 35  1  0  0  0
  4  7  1  0  0  0
  4 15  2  0  0  0
  5  6  1  0  0  0
  5 10  1  0  0  0
  5 16  2  0  0  0
  6 36  1  0  0  0
  7 37  1  0  0  0
  7 38  1  0  0  0
  8 39  1  0  0  0
  8 40  1  0  0  0
  9 12  1  0  0  0
  9 17  2  0  0  0
  9 18  1  0  0  0
 10 12  1  0  0  0
 10 19  1  0  0  0
 10 41  1  0  0  0
 11 13  1  0  0  0
 11 20  1  0  0  0
 11 42  1  0  0  0
 12 43  1  0  0  0
 13 23  1  0  0  0
 13 44  1  0  0  0
 13 73  1  0  0  0
 18 21  1  0  0  0
 19 25  1  0  0  0
 19 45  1  0  0  0
 19 46  1  0  0  0
 20 24  1  0  0  0
 20 47  1  0  0  0
 20 48  1  0  0  0
 21 22  1  0  0  0
 21 49  1  0  0  0
 21 50  1  0  0  0
 22 26  2  0  0  0
 22 27  1  0  0  0
 23 51  1  0  0  0
 23 52  1  0  0  0
 23 53  1  0  0  0
 24 29  1  0  0  0
 24 30  1  0  0  0
 24 54  1  0  0  0
 25 28  1  0  0  0
 25 31  1  0  0  0
 25 55  1  0  0  0
 26 32  1  0  0  0
 26 56  1  0  0  0
 27 33  2  0  0  0
 27 57  1  0  0  0
 28 58  1  0  0  0
 28 59  1  0  0  0
 28 60  1  0  0  0
 29 61  1  0  0  0
 29 62  1  0  0  0
 29 63  1  0  0  0
 30 64  1  0  0  0
 30 65  1  0  0  0
 30 66  1  0  0  0
 31 67  1  0  0  0
 31 68  1  0  0  0
 31 69  1  0  0  0
 32 34  2  0  0  0
 32 70  1  0  0  0
 33 34  1  0  0  0
 33 71  1  0  0  0
 34 72  1  0  0  0
M  CHG  1  13   1
M  END
> <chembl_id>
CHEMBL2371402

> <chembl_pref_name>
None

> <i_m_ct_stereo_status>
1

> <s_m_source_file>
sdf/inactives_sanitized.sdf

> <i_m_source_file_index>
51

> <i_lp_mmshare_version>
49012

> <i_f3d_flags>
0

> <s_epik_input>
W0NIM11bQ0hdKFtDSDNdKVtDSDJdW0NASF0oW05IXVtDSDNdKUMoPU8pTjFbQ0gyXUMoPU8pW0NASF0oW0NIMl0xKVtOSF1DKD1PKVtDQEhdKFtDSDJdW0NIXShbQ0gzXSlbQ0gzXSlbTkhdQyg9TylPW0NIMl1jMltjSF1bY0hdW2NIXVtjSF1bY0hdMg==

> <s_epik_cmdline>
J2VwaWtfcHl0aG9uJywgJy1waHQnLCAnMC41JywgJy1waCcsICc3LjUnLCAnLW50JywgJy1tYScsICcyMDAnLCAnLWltYWUnLCAnPGluZmlsZS5tYWU+JywgJy1vbWFlJywgJzxvdXRmaWxlLm1hZT4n

> <r_lp_tautomer_probability>
0.99999998

> <r_epik_Ionization_Penalty>
  0.2506

> <r_epik_Ionization_Penalty_Charging>
  0.2506

> <r_epik_Ionization_Penalty_Neutral>
  0.0000

> <r_epik_State_Penalty>
  0.2420

> <r_epik_Charging_Adjusted_Penalty>
0.492600381123983

> <i_epik_Tot_Q>
1

> <i_epik_Tot_abs_Q>
1

> <s_epik_Chemistry_Notes>
This compound has an ester and may undergo hydrolysis at high or low pH.

> <s_lp_Force_Field>
OPLS3e

> <r_lp_Energy>
33.783778

> <b_lp_Chiralities_Consistent>
1

> <s_lp_Variant>
sdf/inactives_sanitized.sdf:51-1

$$$$
sdf/inactives_sanitized.sdf:51
                    3D
 Schrodinger Suite 2020-1.
 72 73  0  0  1  0            999 V2000
   -1.9710    0.1131    1.1348 N   0  0  0  0  0  0
   -3.0262   -0.4697    1.7593 C   0  0  0  0  0  0
   -0.0495    0.1435   -0.2260 C   0  0  1  0  0  0
   -0.6145    1.5576   -0.1289 C   0  0  0  0  0  0
    2.2346   -0.6459   -0.7853 C   0  0  0  0  0  0
    1.4100    0.1810   -0.1213 N   0  0  0  0  0  0
   -1.9926    1.4400    0.5133 C   0  0  0  0  0  0
   -0.7084   -0.5958    0.9389 C   0  0  0  0  0  0
    4.3245   -2.5716    0.6860 C   0  0  0  0  0  0
    3.7468   -0.4617   -0.5128 C   0  0  1  0  0  0
   -4.3616    0.3127    1.8867 C   0  0  1  0  0  0
    4.4621   -1.7476   -0.4264 N   0  0  0  0  0  0
   -5.1744   -0.1192    0.7277 N   0  0  2  0  0  0
   -2.9796   -1.6146    2.2192 O   0  0  0  0  0  0
   -0.0692    2.6058   -0.4756 O   0  0  0  0  0  0
    1.8537   -1.5009   -1.5873 O   0  0  0  0  0  0
    3.6728   -2.3214    1.7037 O   0  0  0  0  0  0
    5.0199   -3.7065    0.4778 O   0  0  0  0  0  0
    4.3897    0.4060   -1.6292 C   0  0  0  0  0  0
   -5.0957    0.0737    3.2399 C   0  0  0  0  0  0
    5.0430   -4.7350    1.4645 C   0  0  0  0  0  0
    5.8764   -5.9295    1.0149 C   0  0  0  0  0  0
   -6.1873    0.8484    0.3337 C   0  0  0  0  0  0
   -4.3060    0.4407    4.5216 C   0  0  0  0  0  0
    5.8672    0.8032   -1.3921 C   0  0  0  0  0  0
    5.5525   -7.1965    1.5073 C   0  0  0  0  0  0
    6.9644   -5.7774    0.1466 C   0  0  0  0  0  0
    6.0500    1.6559   -0.1178 C   0  0  0  0  0  0
   -5.0924    0.0379    5.7877 C   0  0  0  0  0  0
   -3.8789    1.9240    4.5469 C   0  0  0  0  0  0
    6.4646    1.4854   -2.6422 C   0  0  0  0  0  0
    6.3032   -8.3066    1.1294 C   0  0  0  0  0  0
    7.7148   -6.8880   -0.2314 C   0  0  0  0  0  0
    7.3809   -8.1474    0.2613 C   0  0  0  0  0  0
   -0.4092   -0.2763   -1.1688 H   0  0  0  0  0  0
    1.8008    0.8366    0.5402 H   0  0  0  0  0  0
   -2.1355    2.2270    1.2546 H   0  0  0  0  0  0
   -2.7758    1.5102   -0.2425 H   0  0  0  0  0  0
   -0.8505   -1.6441    0.6698 H   0  0  0  0  0  0
   -0.0901   -0.5096    1.8342 H   0  0  0  0  0  0
    3.8660    0.0706    0.4343 H   0  0  0  0  0  0
   -4.1672    1.3835    1.8269 H   0  0  0  0  0  0
    4.9467   -2.0904   -1.2430 H   0  0  0  0  0  0
   -5.6134   -1.0094    0.9179 H   0  0  0  0  0  0
    4.3120   -0.1262   -2.5800 H   0  0  0  0  0  0
    3.8118    1.3231   -1.7627 H   0  0  0  0  0  0
   -6.0216    0.6503    3.2454 H   0  0  0  0  0  0
   -5.4156   -0.9687    3.2945 H   0  0  0  0  0  0
    5.4539   -4.3511    2.3997 H   0  0  0  0  0  0
    4.0204   -5.0640    1.6592 H   0  0  0  0  0  0
   -6.7211    0.4845   -0.5441 H   0  0  0  0  0  0
   -5.7329    1.8065    0.0785 H   0  0  0  0  0  0
   -6.9154    1.0080    1.1292 H   0  0  0  0  0  0
   -3.3934   -0.1560    4.5342 H   0  0  0  0  0  0
    6.4375   -0.1154   -1.2483 H   0  0  0  0  0  0
    4.7192   -7.3234    2.1832 H   0  0  0  0  0  0
    7.2354   -4.8036   -0.2352 H   0  0  0  0  0  0
    5.1067    2.0766    0.2312 H   0  0  0  0  0  0
    6.7358    2.4904   -0.2630 H   0  0  0  0  0  0
    6.4556    1.0505    0.6934 H   0  0  0  0  0  0
   -5.4056    0.8972    6.3805 H   0  0  0  0  0  0
   -4.4862   -0.5981    6.4335 H   0  0  0  0  0  0
   -5.9966   -0.5219    5.5467 H   0  0  0  0  0  0
   -4.4559    2.5274    3.8458 H   0  0  0  0  0  0
   -2.8275    2.0244    4.2759 H   0  0  0  0  0  0
   -3.9967    2.3785    5.5305 H   0  0  0  0  0  0
    6.7271    2.5290   -2.4696 H   0  0  0  0  0  0
    5.7735    1.4731   -3.4858 H   0  0  0  0  0  0
    7.3712    0.9732   -2.9658 H   0  0  0  0  0  0
    6.0522   -9.2859    1.5091 H   0  0  0  0  0  0
    8.5538   -6.7731   -0.9019 H   0  0  0  0  0  0
    7.9644   -9.0083   -0.0305 H   0  0  0  0  0  0
  1  2  1  0  0  0
  1  7  1  0  0  0
  1  8  1  0  0  0
  2 11  1  0  0  0
  2 14  2  0  0  0
  3  8  1  0  0  0
  3  6  1  0  0  0
  3  4  1  0  0  0
  3 35  1  0  0  0
  4  7  1  0  0  0
  4 15  2  0  0  0
  5  6  1  0  0  0
  5 10  1  0  0  0
  5 16  2  0  0  0
  6 36  1  0  0  0
  7 37  1  0  0  0
  7 38  1  0  0  0
  8 39  1  0  0  0
  8 40  1  0  0  0
  9 12  1  0  0  0
  9 17  2  0  0  0
  9 18  1  0  0  0
 10 12  1  0  0  0
 10 19  1  0  0  0
 10 41  1  0  0  0
 11 13  1  0  0  0
 11 20  1  0  0  0
 11 42  1  0  0  0
 12 43  1  0  0  0
 13 23  1  0  0  0
 13 44  1  0  0  0
 18 21  1  0  0  0
 19 25  1  0  0  0
 19 45  1  0  0  0
 19 46  1  0  0  0
 20 24  1  0  0  0
 20 47  1  0  0  0
 20 48  1  0  0  0
 21 22  1  0  0  0
 21 49  1  0  0  0
 21 50  1  0  0  0
 22 26  2  0  0  0
 22 27  1  0  0  0
 23 51  1  0  0  0
 23 52  1  0  0  0
 23 53  1  0  0  0
 24 29  1  0  0  0
 24 30  1  0  0  0
 24 54  1  0  0  0
 25 28  1  0  0  0
 25 31  1  0  0  0
 25 55  1  0  0  0
 26 32  1  0  0  0
 26 56  1  0  0  0
 27 33  2  0  0  0
 27 57  1  0  0  0
 28 58  1  0  0  0
 28 59  1  0  0  0
 28 60  1  0  0  0
 29 61  1  0  0  0
 29 62  1  0  0  0
 29 63  1  0  0  0
 30 64  1  0  0  0
 30 65  1  0  0  0
 30 66  1  0  0  0
 31 67  1  0  0  0
 31 68  1  0  0  0
 31 69  1  0  0  0
 32 34  2  0  0  0
 32 70  1  0  0  0
 33 34  1  0  0  0
 33 71  1  0  0  0
 34 72  1  0  0  0
M  END
> <chembl_id>
CHEMBL2371402

> <chembl_pref_name>
None

> <i_m_ct_stereo_status>
1

> <s_m_source_file>
sdf/inactives_sanitized.sdf

> <i_m_source_file_index>
51

> <i_lp_mmshare_version>
49012

> <i_f3d_flags>
0

> <s_epik_input>
W0NIM11bQ0hdKFtDSDNdKVtDSDJdW0NASF0oW05IXVtDSDNdKUMoPU8pTjFbQ0gyXUMoPU8pW0NASF0oW0NIMl0xKVtOSF1DKD1PKVtDQEhdKFtDSDJdW0NIXShbQ0gzXSlbQ0gzXSlbTkhdQyg9TylPW0NIMl1jMltjSF1bY0hdW2NIXVtjSF1bY0hdMg==

> <s_epik_cmdline>
J2VwaWtfcHl0aG9uJywgJy1waHQnLCAnMC41JywgJy1waCcsICc3LjUnLCAnLW50JywgJy1tYScsICcyMDAnLCAnLWltYWUnLCAnPGluZmlsZS5tYWU+JywgJy1vbWFlJywgJzxvdXRmaWxlLm1hZT4n

> <r_lp_tautomer_probability>
0.99999998

> <r_epik_Ionization_Penalty>
  0.6306

> <r_epik_Ionization_Penalty_Charging>
  0.0000

> <r_epik_Ionization_Penalty_Neutral>
  0.6306

> <r_epik_State_Penalty>
  0.6475

> <r_epik_Charging_Adjusted_Penalty>
0.647460875049834

> <i_epik_Tot_Q>
0

> <i_epik_Tot_abs_Q>
0

> <s_epik_Chemistry_Notes>
This compound has an ester and may undergo hydrolysis at high or low pH.

> <s_lp_Force_Field>
OPLS3e

> <r_lp_Energy>
27.654644

> <b_lp_Chiralities_Consistent>
1

> <s_lp_Variant>
sdf/inactives_sanitized.sdf:51-2

$$$$
sdf/inactives_sanitized.sdf:52
                    3D
 Schrodinger Suite 2020-1.
 54 56  0  0  1  0            999 V2000
   -1.8753   -1.7757    0.5661 C   0  0  1  0  0  0
   -2.7579   -3.5208    1.3411 N   0  0  0  0  0  0
   -2.2886   -3.1620   -0.0178 C   0  0  1  0  0  0
   -2.2991   -2.3463    1.9367 C   0  0  0  0  0  0
   -0.4462   -1.4635    0.4749 N   0  0  0  0  0  0
    0.0952   -0.2711    0.1526 C   0  0  0  0  0  0
    1.6584   -0.1545    0.0350 C   0  0  0  0  0  0
   -3.3073   -3.1646   -0.9815 O   0  0  0  0  0  0
    1.9666    1.8444    1.5937 C   0  0  0  0  0  0
    2.1345    1.2085    0.3672 N   0  0  0  0  0  0
   -2.9837   -2.7077   -2.2249 C   0  0  0  0  0  0
   -2.2904   -1.9399    3.0965 O   0  0  0  0  0  0
   -0.6061    0.7101   -0.1087 O   0  0  0  0  0  0
    1.3541    1.4049    2.5697 O   0  0  0  0  0  0
    2.5937    3.0419    1.5514 O   0  0  0  0  0  0
   -1.8819   -2.3050   -2.6061 O   0  0  0  0  0  0
    2.5567    3.9522    2.6528 C   0  0  0  0  0  0
    1.2010    4.6402    2.7993 C   0  0  0  0  0  0
    2.3740   -1.2794    0.8660 C   0  0  0  0  0  0
    1.9498   -0.4911   -1.4626 C   0  0  0  0  0  0
   -4.1773   -2.7400   -3.1711 C   0  0  0  0  0  0
    0.6705    4.8389    4.0762 C   0  0  0  0  0  0
    0.4983    5.0826    1.6733 C   0  0  0  0  0  0
    3.8962   -1.3235    0.6065 C   0  0  0  0  0  0
    3.4604   -0.5242   -1.7857 C   0  0  0  0  0  0
   -0.7348    5.7111    1.8253 C   0  0  0  0  0  0
   -0.5621    5.4689    4.2278 C   0  0  0  0  0  0
    4.2054   -1.5331   -0.8893 C   0  0  0  0  0  0
   -1.2596    5.9010    3.1017 C   0  0  0  0  0  0
   -2.4661   -0.9245    0.2206 H   0  0  0  0  0  0
   -3.5370   -4.0945    1.6299 H   0  0  0  0  0  0
   -1.4860   -3.8268   -0.3534 H   0  0  0  0  0  0
    0.1825   -2.2312    0.6605 H   0  0  0  0  0  0
    2.7454    1.6532   -0.3021 H   0  0  0  0  0  0
    2.8206    3.4297    3.5742 H   0  0  0  0  0  0
    3.3150    4.7193    2.4948 H   0  0  0  0  0  0
    2.2550   -1.0677    1.9299 H   0  0  0  0  0  0
    1.9359   -2.2685    0.7238 H   0  0  0  0  0  0
    1.4477   -1.4030   -1.7962 H   0  0  0  0  0  0
    1.5314    0.2986   -2.0915 H   0  0  0  0  0  0
   -4.9524   -2.0573   -2.8236 H   0  0  0  0  0  0
   -4.5954   -3.7452   -3.2224 H   0  0  0  0  0  0
   -3.8806   -2.4395   -4.1763 H   0  0  0  0  0  0
    1.2088    4.5041    4.9510 H   0  0  0  0  0  0
    0.9032    4.9384    0.6819 H   0  0  0  0  0  0
    4.3589   -0.3967    0.9494 H   0  0  0  0  0  0
    4.3506   -2.1227    1.1932 H   0  0  0  0  0  0
    3.6101   -0.7820   -2.8348 H   0  0  0  0  0  0
    3.8922    0.4692   -1.6542 H   0  0  0  0  0  0
   -1.2816    6.0497    0.9577 H   0  0  0  0  0  0
   -0.9755    5.6211    5.2140 H   0  0  0  0  0  0
    3.9183   -2.5461   -1.1756 H   0  0  0  0  0  0
    5.2800   -1.4621   -1.0616 H   0  0  0  0  0  0
   -2.2161    6.3884    3.2198 H   0  0  0  0  0  0
  1  3  1  0  0  0
  1  4  1  0  0  0
  1  5  1  0  0  0
  1 30  1  0  0  0
  2  4  1  0  0  0
  2  3  1  0  0  0
  2 31  1  0  0  0
  3  8  1  0  0  0
  3 32  1  0  0  0
  4 12  2  0  0  0
  5  6  1  0  0  0
  5 33  1  0  0  0
  6  7  1  0  0  0
  6 13  2  0  0  0
  7 10  1  0  0  0
  7 19  1  0  0  0
  7 20  1  0  0  0
  8 11  1  0  0  0
  9 10  1  0  0  0
  9 14  2  0  0  0
  9 15  1  0  0  0
 10 34  1  0  0  0
 11 16  2  0  0  0
 11 21  1  0  0  0
 15 17  1  0  0  0
 17 18  1  0  0  0
 17 35  1  0  0  0
 17 36  1  0  0  0
 18 22  2  0  0  0
 18 23  1  0  0  0
 19 24  1  0  0  0
 19 37  1  0  0  0
 19 38  1  0  0  0
 20 25  1  0  0  0
 20 39  1  0  0  0
 20 40  1  0  0  0
 21 41  1  0  0  0
 21 42  1  0  0  0
 21 43  1  0  0  0
 22 27  1  0  0  0
 22 44  1  0  0  0
 23 26  2  0  0  0
 23 45  1  0  0  0
 24 28  1  0  0  0
 24 46  1  0  0  0
 24 47  1  0  0  0
 25 28  1  0  0  0
 25 48  1  0  0  0
 25 49  1  0  0  0
 26 29  1  0  0  0
 26 50  1  0  0  0
 27 29  2  0  0  0
 27 51  1  0  0  0
 28 52  1  0  0  0
 28 53  1  0  0  0
 29 54  1  0  0  0
M  END
> <chembl_id>
CHEMBL62655

> <chembl_pref_name>
None

> <i_m_ct_stereo_status>
1

> <s_m_source_file>
sdf/inactives_sanitized.sdf

> <i_m_source_file_index>
52

> <i_lp_mmshare_version>
49012

> <i_f3d_flags>
0

> <s_epik_input>
Tz1DMVtOSF1bQ0BASF0oT0MoPU8pW0NIM10pW0NAQEhdMVtOSF1DKD1PKUMyKFtDSDJdW0NIMl1bQ0gyXVtDSDJdW0NIMl0yKVtOSF1DKD1PKU9bQ0gyXWMzW2NIXVtjSF1bY0hdW2NIXVtjSF0z

> <s_epik_cmdline>
J2VwaWtfcHl0aG9uJywgJy1waHQnLCAnMC41JywgJy1waCcsICc3LjUnLCAnLW50JywgJy1tYScsICcyMDAnLCAnLWltYWUnLCAnPGluZmlsZS5tYWU+JywgJy1vbWFlJywgJzxvdXRmaWxlLm1hZT4n

> <r_lp_tautomer_probability>
1

> <r_epik_Ionization_Penalty>
  0.0000

> <r_epik_Ionization_Penalty_Charging>
  0.0000

> <r_epik_Ionization_Penalty_Neutral>
  0.0000

> <r_epik_State_Penalty>
 -0.0000

> <r_epik_Charging_Adjusted_Penalty>
0

> <i_epik_Tot_Q>
0

> <i_epik_Tot_abs_Q>
0

> <s_epik_Chemistry_Notes>
This compound has an ester and may undergo hydrolysis at high or low pH. This compound contains an acetal/aminal-like group ( X-CH(R)-Y where X, Y are N, S, or O) that may be acid/base labile, releasing an aldehyde.

> <s_lp_Force_Field>
OPLS3e

> <r_lp_Energy>
38.555711

> <b_lp_Chiralities_Consistent>
1

> <s_lp_Variant>
sdf/inactives_sanitized.sdf:52-1

$$$$
sdf/inactives_sanitized.sdf:53
                    3D
 Schrodinger Suite 2020-1.
 48 50  0  0  1  0            999 V2000
   -1.8459   -1.5501    0.3826 C   0  0  1  0  0  0
   -2.4335   -3.5084   -0.1427 N   0  0  0  0  0  0
   -2.2237   -2.2725   -0.9471 C   0  0  1  0  0  0
   -2.0318   -2.9261    1.0576 C   0  0  0  0  0  0
    2.2085   -0.3582    1.0604 N   0  0  0  0  0  0
   -0.4764   -1.0525    0.4867 N   0  0  0  0  0  0
    0.0163   -0.0393   -0.2458 C   0  0  0  0  0  0
    2.0016   -0.3344    2.4476 C   0  0  0  0  0  0
    1.4669    0.4199    0.0370 C   0  0  2  0  0  0
   -3.3516   -1.6980   -1.5578 O   0  0  0  0  0  0
   -4.0009   -2.4300   -2.5076 C   0  0  0  0  0  0
    0.9670    0.4762    2.7699 O   0  0  0  0  0  0
   -1.8821   -3.3666    2.1952 O   0  0  0  0  0  0
   -0.6293    0.5476   -1.1139 O   0  0  0  0  0  0
    2.6544   -0.9779    3.2727 O   0  0  0  0  0  0
   -3.6872   -3.5445   -2.9320 O   0  0  0  0  0  0
    3.2678   -1.1631    0.4469 C   0  0  0  0  0  0
    0.4905    0.5790    4.1048 C   0  0  0  0  0  0
    2.3611    0.2868   -1.2083 C   0  0  0  0  0  0
   -0.9190    1.1389    4.0785 C   0  0  0  0  0  0
    3.0185   -1.0749   -1.0542 C   0  0  0  0  0  0
   -5.2225   -1.6997   -3.0506 C   0  0  0  0  0  0
   -1.1522    2.4644    4.4512 C   0  0  0  0  0  0
   -1.9783    0.3250    3.6694 C   0  0  0  0  0  0
   -3.2716    0.8386    3.6281 C   0  0  0  0  0  0
   -2.4465    2.9768    4.4118 C   0  0  0  0  0  0
   -3.4997    2.1623    3.9999 C   0  0  0  0  0  0
   -2.5158   -0.7619    0.7327 H   0  0  0  0  0  0
   -2.3215   -4.4748   -0.4134 H   0  0  0  0  0  0
   -1.4211   -2.3302   -1.6885 H   0  0  0  0  0  0
    0.0885   -1.4314    1.2336 H   0  0  0  0  0  0
    1.4194    1.4711    0.3270 H   0  0  0  0  0  0
    4.2342   -0.7223    0.6977 H   0  0  0  0  0  0
    3.2662   -2.1986    0.7915 H   0  0  0  0  0  0
    0.4721   -0.3940    4.5997 H   0  0  0  0  0  0
    1.1487    1.2236    4.6893 H   0  0  0  0  0  0
    1.8286    0.3837   -2.1556 H   0  0  0  0  0  0
    3.1247    1.0657   -1.1880 H   0  0  0  0  0  0
    2.3148   -1.8527   -1.3541 H   0  0  0  0  0  0
    3.9239   -1.1916   -1.6503 H   0  0  0  0  0  0
   -4.9180   -0.7966   -3.5795 H   0  0  0  0  0  0
   -5.8901   -1.4180   -2.2363 H   0  0  0  0  0  0
   -5.7744   -2.3344   -3.7442 H   0  0  0  0  0  0
   -0.3353    3.0972    4.7667 H   0  0  0  0  0  0
   -1.7986   -0.7005    3.3806 H   0  0  0  0  0  0
   -4.0932    0.2141    3.3096 H   0  0  0  0  0  0
   -2.6322    4.0017    4.6978 H   0  0  0  0  0  0
   -4.5030    2.5610    3.9683 H   0  0  0  0  0  0
  1  3  1  0  0  0
  1  4  1  0  0  0
  1  6  1  0  0  0
  1 28  1  0  0  0
  2  4  1  0  0  0
  2  3  1  0  0  0
  2 29  1  0  0  0
  3 10  1  0  0  0
  3 30  1  0  0  0
  4 13  2  0  0  0
  5  9  1  0  0  0
  5  8  1  0  0  0
  5 17  1  0  0  0
  6  7  1  0  0  0
  6 31  1  0  0  0
  7  9  1  0  0  0
  7 14  2  0  0  0
  8 12  1  0  0  0
  8 15  2  0  0  0
  9 19  1  0  0  0
  9 32  1  0  0  0
 10 11  1  0  0  0
 11 16  2  0  0  0
 11 22  1  0  0  0
 12 18  1  0  0  0
 17 21  1  0  0  0
 17 33  1  0  0  0
 17 34  1  0  0  0
 18 20  1  0  0  0
 18 35  1  0  0  0
 18 36  1  0  0  0
 19 21  1  0  0  0
 19 37  1  0  0  0
 19 38  1  0  0  0
 20 23  2  0  0  0
 20 24  1  0  0  0
 21 39  1  0  0  0
 21 40  1  0  0  0
 22 41  1  0  0  0
 22 42  1  0  0  0
 22 43  1  0  0  0
 23 26  1  0  0  0
 23 44  1  0  0  0
 24 25  2  0  0  0
 24 45  1  0  0  0
 25 27  1  0  0  0
 25 46  1  0  0  0
 26 27  2  0  0  0
 26 47  1  0  0  0
 27 48  1  0  0  0
M  END
> <chembl_id>
CHEMBL411932

> <chembl_pref_name>
None

> <i_m_ct_stereo_status>
1

> <s_m_source_file>
sdf/inactives_sanitized.sdf

> <i_m_source_file_index>
53

> <i_lp_mmshare_version>
49012

> <i_f3d_flags>
0

> <s_epik_input>
Tz1DMVtOSF1bQ0BASF0oT0MoPU8pW0NIM10pW0NAQEhdMVtOSF1DKD1PKVtDQEhdKFtDSDJdW0NIMl1bQ0gyXTIpTjJDKD1PKU9bQ0gyXWMzW2NIXVtjSF1bY0hdW2NIXVtjSF0z

> <s_epik_cmdline>
J2VwaWtfcHl0aG9uJywgJy1waHQnLCAnMC41JywgJy1waCcsICc3LjUnLCAnLW50JywgJy1tYScsICcyMDAnLCAnLWltYWUnLCAnPGluZmlsZS5tYWU+JywgJy1vbWFlJywgJzxvdXRmaWxlLm1hZT4n

> <r_lp_tautomer_probability>
1

> <r_epik_Ionization_Penalty>
  0.0000

> <r_epik_Ionization_Penalty_Charging>
  0.0000

> <r_epik_Ionization_Penalty_Neutral>
  0.0000

> <r_epik_State_Penalty>
 -0.0000

> <r_epik_Charging_Adjusted_Penalty>
0

> <i_epik_Tot_Q>
0

> <i_epik_Tot_abs_Q>
0

> <s_epik_Chemistry_Notes>
This compound has an ester and may undergo hydrolysis at high or low pH. This compound contains an acetal/aminal-like group ( X-CH(R)-Y where X, Y are N, S, or O) that may be acid/base labile, releasing an aldehyde.

> <s_lp_Force_Field>
OPLS3e

> <r_lp_Energy>
28.215483

> <b_lp_Chiralities_Consistent>
1

> <s_lp_Variant>
sdf/inactives_sanitized.sdf:53-1

$$$$
sdf/inactives_sanitized.sdf:54
                    3D
 Schrodinger Suite 2020-1.
 98101  0  0  1  0            999 V2000
   -0.7583    1.2637   -0.5468 N   0  0  0  0  0  0
   -0.5764    1.6099    0.7562 C   0  0  0  0  0  0
   -0.7554   -0.1391   -1.0028 C   0  0  2  0  0  0
    0.6579   -0.5771   -1.4682 C   0  0  0  0  0  0
    3.3002   -2.2392   -1.1519 C   0  0  0  0  0  0
    2.6252   -3.4090   -0.3083 C   0  0  0  0  0  0
   -2.8850    3.4050    2.0047 C   0  0  0  0  0  0
   -1.5598    3.3236    2.2170 N   0  0  0  0  0  0
   -0.5486    3.1121    1.1742 C   0  0  1  0  0  0
   -4.6701    4.6518    3.2049 N   0  0  0  0  0  0
   -4.3047    5.9505    3.2174 C   0  0  0  0  0  0
   -1.2681    2.1407   -1.6068 C   0  0  0  0  0  0
    1.6385   -0.4828   -0.5458 N   0  0  0  0  0  0
   -3.7727    3.4885    3.2735 C   0  0  1  0  0  0
   -5.4211    6.9674    3.1177 C   0  0  0  0  0  0
   -1.8759   -0.2091   -2.0680 C   0  0  2  0  0  0
    2.8102   -4.6178   -0.8701 N   0  0  0  0  0  0
    3.0735   -0.7956   -0.6815 C   0  0  1  0  0  0
   -2.2233    1.2460   -2.4156 C   0  0  1  0  0  0
    2.2019   -5.8505   -0.3814 C   0  0  0  0  0  0
    0.8717    3.6476    1.6062 C   0  0  0  0  0  0
   -6.7159    6.5299    3.0691 N   0  0  0  0  0  0
   -4.5353    2.1524    3.6204 C   0  0  0  0  0  0
   -0.3464    0.7716    1.6322 O   0  0  0  0  0  0
    0.8580   -0.9874   -2.6120 O   0  0  0  0  0  0
    2.5997   -6.3866    0.9780 C   0  0  0  0  0  0
    3.0622   -7.0882   -0.2768 C   0  0  0  0  0  0
    4.0039   -2.5004   -2.1312 O   0  0  0  0  0  0
    2.0103   -3.1867    0.7363 O   0  0  0  0  0  0
   -3.4071    3.3821    0.8891 O   0  0  0  0  0  0
   -3.1298    6.3142    3.3090 O   0  0  0  0  0  0
   -6.1268    9.2756    2.9814 N   0  0  0  0  0  0
   -5.1418    8.3435    3.0734 C   0  0  0  0  0  0
   -3.1767   -0.8453   -1.5384 C   0  0  0  0  0  0
   -3.7108    1.4278   -2.0491 C   0  0  0  0  0  0
   -4.0137    0.3277   -1.0337 C   0  0  0  0  0  0
    3.8435   -0.4650    0.6250 C   0  0  0  0  0  0
   -7.7006    7.4615    2.9781 C   0  0  0  0  0  0
    0.7887    5.1697    1.8973 C   0  0  0  0  0  0
    1.8964    3.4584    0.4556 C   0  0  0  0  0  0
    1.4314    2.9565    2.8792 C   0  0  0  0  0  0
   -7.4071    8.8253    2.9343 C   0  0  0  0  0  0
   -5.2209    2.2938    5.0045 C   0  0  0  0  0  0
   -3.5695    0.9398    3.7026 C   0  0  0  0  0  0
   -5.6458    1.8289    2.5845 C   0  0  0  0  0  0
    5.3801   -0.5586    0.5182 C   0  0  0  0  0  0
    6.0928   -0.1077    1.8003 C   0  0  0  0  0  0
   -0.9440   -0.8284   -0.1776 H   0  0  0  0  0  0
   -1.2108    3.3499    3.1640 H   0  0  0  0  0  0
   -0.8439    3.7431    0.3393 H   0  0  0  0  0  0
   -5.6522    4.4320    3.1254 H   0  0  0  0  0  0
   -1.7737    3.0570   -1.3077 H   0  0  0  0  0  0
   -0.4393    2.3952   -2.2683 H   0  0  0  0  0  0
    1.3889   -0.0765    0.3449 H   0  0  0  0  0  0
   -3.1051    3.6773    4.1185 H   0  0  0  0  0  0
   -1.5745   -0.7481   -2.9677 H   0  0  0  0  0  0
    3.2838   -4.6657   -1.7609 H   0  0  0  0  0  0
    3.4484   -0.1085   -1.4434 H   0  0  0  0  0  0
   -2.0762    1.4243   -3.4823 H   0  0  0  0  0  0
    1.1604   -5.9695   -0.6833 H   0  0  0  0  0  0
    3.3245   -5.8291    1.5723 H   0  0  0  0  0  0
    1.8281   -6.8489    1.5936 H   0  0  0  0  0  0
    2.6188   -8.0480   -0.5424 H   0  0  0  0  0  0
    4.1122   -7.0236   -0.5642 H   0  0  0  0  0  0
   -4.1304    8.7233    3.1082 H   0  0  0  0  0  0
   -3.6972   -1.3654   -2.3444 H   0  0  0  0  0  0
   -3.0013   -1.5769   -0.7485 H   0  0  0  0  0  0
   -3.9324    2.4150   -1.6423 H   0  0  0  0  0  0
   -4.3324    1.3050   -2.9376 H   0  0  0  0  0  0
   -3.6847    0.6274   -0.0371 H   0  0  0  0  0  0
   -5.0768    0.0913   -0.9780 H   0  0  0  0  0  0
    3.5819    0.5507    0.9276 H   0  0  0  0  0  0
    3.4943   -1.0991    1.4416 H   0  0  0  0  0  0
   -8.7187    7.1033    2.9409 H   0  0  0  0  0  0
    1.7575    5.5751    2.1930 H   0  0  0  0  0  0
    0.0943    5.3958    2.7075 H   0  0  0  0  0  0
    0.4655    5.7307    1.0192 H   0  0  0  0  0  0
    1.5930    3.9940   -0.4450 H   0  0  0  0  0  0
    2.0310    2.4103    0.1877 H   0  0  0  0  0  0
    2.8820    3.8348    0.7335 H   0  0  0  0  0  0
    2.3666    3.4169    3.2009 H   0  0  0  0  0  0
    1.6584    1.9035    2.7140 H   0  0  0  0  0  0
    0.7389    3.0247    3.7190 H   0  0  0  0  0  0
   -8.1891    9.5669    2.8616 H   0  0  0  0  0  0
   -5.7296    1.3735    5.2956 H   0  0  0  0  0  0
   -5.9744    3.0824    5.0109 H   0  0  0  0  0  0
   -4.4979    2.5192    5.7898 H   0  0  0  0  0  0
   -2.7806    1.1045    4.4375 H   0  0  0  0  0  0
   -3.0946    0.7248    2.7446 H   0  0  0  0  0  0
   -4.0950    0.0294    3.9948 H   0  0  0  0  0  0
   -6.1716    0.9086    2.8427 H   0  0  0  0  0  0
   -5.2463    1.6828    1.5815 H   0  0  0  0  0  0
   -6.3990    2.6161    2.5327 H   0  0  0  0  0  0
    5.6777   -1.5839    0.2952 H   0  0  0  0  0  0
    5.7279    0.0533   -0.3153 H   0  0  0  0  0  0
    7.1747   -0.1920    1.6944 H   0  0  0  0  0  0
    5.7955   -0.7177    2.6539 H   0  0  0  0  0  0
    5.8641    0.9322    2.0357 H   0  0  0  0  0  0
  1  2  1  0  0  0
  1  3  1  0  0  0
  1 12  1  0  0  0
  2  9  1  0  0  0
  2 24  2  0  0  0
  3  4  1  0  0  0
  3 16  1  0  0  0
  3 48  1  0  0  0
  4 13  1  0  0  0
  4 25  2  0  0  0
  5 18  1  0  0  0
  5  6  1  0  0  0
  5 28  2  0  0  0
  6 17  1  0  0  0
  6 29  2  0  0  0
  7  8  1  0  0  0
  7 14  1  0  0  0
  7 30  2  0  0  0
  8  9  1  0  0  0
  8 49  1  0  0  0
  9 21  1  0  0  0
  9 50  1  0  0  0
 10 14  1  0  0  0
 10 11  1  0  0  0
 10 51  1  0  0  0
 11 15  1  0  0  0
 11 31  2  0  0  0
 12 19  1  0  0  0
 12 52  1  0  0  0
 12 53  1  0  0  0
 13 18  1  0  0  0
 13 54  1  0  0  0
 14 23  1  0  0  0
 14 55  1  0  0  0
 15 22  2  0  0  0
 15 33  1  0  0  0
 16 34  1  0  0  0
 16 19  1  0  0  0
 16 56  1  0  0  0
 17 20  1  0  0  0
 17 57  1  0  0  0
 18 37  1  0  0  0
 18 58  1  0  0  0
 19 35  1  0  0  0
 19 59  1  0  0  0
 20 26  1  0  0  0
 20 27  1  0  0  0
 20 60  1  0  0  0
 21 39  1  0  0  0
 21 40  1  0  0  0
 21 41  1  0  0  0
 22 38  1  0  0  0
 23 43  1  0  0  0
 23 44  1  0  0  0
 23 45  1  0  0  0
 26 27  1  0  0  0
 26 61  1  0  0  0
 26 62  1  0  0  0
 27 63  1  0  0  0
 27 64  1  0  0  0
 32 33  2  0  0  0
 32 42  1  0  0  0
 33 65  1  0  0  0
 34 36  1  0  0  0
 34 66  1  0  0  0
 34 67  1  0  0  0
 35 36  1  0  0  0
 35 68  1  0  0  0
 35 69  1  0  0  0
 36 70  1  0  0  0
 36 71  1  0  0  0
 37 46  1  0  0  0
 37 72  1  0  0  0
 37 73  1  0  0  0
 38 42  2  0  0  0
 38 74  1  0  0  0
 39 75  1  0  0  0
 39 76  1  0  0  0
 39 77  1  0  0  0
 40 78  1  0  0  0
 40 79  1  0  0  0
 40 80  1  0  0  0
 41 81  1  0  0  0
 41 82  1  0  0  0
 41 83  1  0  0  0
 42 84  1  0  0  0
 43 85  1  0  0  0
 43 86  1  0  0  0
 43 87  1  0  0  0
 44 88  1  0  0  0
 44 89  1  0  0  0
 44 90  1  0  0  0
 45 91  1  0  0  0
 45 92  1  0  0  0
 45 93  1  0  0  0
 46 47  1  0  0  0
 46 94  1  0  0  0
 46 95  1  0  0  0
 47 96  1  0  0  0
 47 97  1  0  0  0
 47 98  1  0  0  0
M  END
> <chembl_id>
CHEMBL2371797

> <chembl_pref_name>
None

> <i_m_ct_stereo_status>
1

> <s_m_source_file>
sdf/inactives_sanitized.sdf

> <i_m_source_file_index>
54

> <i_lp_mmshare_version>
49012

> <i_f3d_flags>
0

> <s_epik_input>
W0NIMl0xW0NIMl1bQ0hdMVtOSF1DKD1PKUMoPU8pW0NASF0oW0NIMl1bQ0gyXVtDSDNdKVtOSF1DKD1PKVtDQEhdMk4oW0NIMl1bQ0BASF0oW0NAQEhdMjMpW0NIMl1bQ0gyXVtDSDJdMylDKD1PKVtDQEhdKEMoW0NIM10pKFtDSDNdKVtDSDNdKVtOSF1DKD1PKVtDQEhdKEMoW0NIM10pKFtDSDNdKVtDSDNdKVtOSF1DKD1PKWM0bltjSF1bY0hdbltjSF00

> <s_epik_cmdline>
J2VwaWtfcHl0aG9uJywgJy1waHQnLCAnMC41JywgJy1waCcsICc3LjUnLCAnLW50JywgJy1tYScsICcyMDAnLCAnLWltYWUnLCAnPGluZmlsZS5tYWU+JywgJy1vbWFlJywgJzxvdXRmaWxlLm1hZT4n

> <r_lp_tautomer_probability>
1

> <r_epik_Ionization_Penalty>
  0.0000

> <r_epik_Ionization_Penalty_Charging>
  0.0000

> <r_epik_Ionization_Penalty_Neutral>
  0.0000

> <r_epik_State_Penalty>
 -0.0000

> <r_epik_Charging_Adjusted_Penalty>
0

> <i_epik_Tot_Q>
0

> <i_epik_Tot_abs_Q>
0

> <s_lp_Force_Field>
OPLS3e

> <r_lp_Energy>
48.680919

> <b_lp_Chiralities_Consistent>
1

> <s_lp_Variant>
sdf/inactives_sanitized.sdf:54-1

$$$$
sdf/inactives_sanitized.sdf:55
                    3D
 Schrodinger Suite 2020-1.
 73 76  0  0  1  0            999 V2000
    3.7120   -0.2256   -0.7538 C   0  0  0  0  0  0
    4.1548    1.1679   -0.1934 C   0  0  0  0  0  0
    3.9846    2.3508   -1.1751 C   0  0  0  0  0  0
    4.7249    2.0866   -2.5007 C   0  0  0  0  0  0
    4.3515    0.7256   -3.1202 C   0  0  0  0  0  0
    4.4931   -0.4266   -2.0971 C   0  0  0  0  0  0
    2.1626   -0.2001   -1.0217 C   0  0  0  0  0  0
    1.6839   -0.7683   -2.0055 O   0  0  0  0  0  0
   -2.6166    3.0453    0.0212 O   0  0  0  0  0  0
   -3.9397    2.8479   -0.2198 C   0  0  0  0  0  0
   -4.2099    1.5962   -0.5067 N   0  0  0  0  0  0
   -2.9981    0.9147   -0.4561 N   0  0  0  0  0  0
   -2.0865    1.8035   -0.1370 C   0  0  0  0  0  0
   -0.6478    1.6283    0.0552 C   0  0  0  0  0  0
    0.0690    2.6189    0.2315 O   0  0  0  0  0  0
   -0.0878    0.2018    0.0280 C   0  0  1  0  0  0
    1.3803    0.2857   -0.0374 N   0  0  0  0  0  0
   -0.5521   -0.6088    1.2689 C   0  0  0  0  0  0
   -0.0156   -2.0555    1.2993 C   0  0  0  0  0  0
   -0.5516   -2.8700    2.4836 C   0  0  0  0  0  0
    4.0302   -1.2751    0.2411 N   0  0  0  0  0  0
    3.7669   -2.6022    0.1971 C   0  0  0  0  0  0
    4.2060   -3.4192    1.3953 C   0  0  0  0  0  0
    3.1678   -3.1364   -0.7382 O   0  0  0  0  0  0
    3.7618   -4.7412    1.5322 C   0  0  0  0  0  0
    4.1481   -5.5096    2.6262 C   0  0  0  0  0  0
    4.9852   -4.9811    3.6073 C   0  0  0  0  0  0
    5.4361   -3.6594    3.4766 C   0  0  0  0  0  0
    5.0506   -2.8884    2.3831 C   0  0  0  0  0  0
    5.3105   -5.8249    4.6539 O   0  0  0  0  0  0
    6.1498   -5.3763    5.7178 C   0  0  0  0  0  0
    6.2762   -6.3875    6.5754 F   0  0  0  0  0  0
    7.3717   -5.0616    5.2834 F   0  0  0  0  0  0
    5.6040   -4.3539    6.3793 F   0  0  0  0  0  0
   -4.8830    4.0033   -0.1312 C   0  0  0  0  0  0
   -6.2545    3.8079   -0.3213 C   0  0  0  0  0  0
   -7.1370    4.8815   -0.2374 C   0  0  0  0  0  0
   -6.6575    6.1712    0.0386 C   0  0  0  0  0  0
   -5.2883    6.3612    0.2262 C   0  0  0  0  0  0
   -4.4052    5.2881    0.1432 C   0  0  0  0  0  0
   -7.4561    7.2942    0.1415 O   0  0  0  0  0  0
   -8.8627    7.1650   -0.0353 C   0  0  0  0  0  0
    3.6373    1.3847    0.7430 H   0  0  0  0  0  0
    5.1841    1.1003    0.1639 H   0  0  0  0  0  0
    2.9266    2.5286   -1.3732 H   0  0  0  0  0  0
    4.3617    3.2669   -0.7192 H   0  0  0  0  0  0
    4.5157    2.8879   -3.2103 H   0  0  0  0  0  0
    5.8009    2.1151   -2.3213 H   0  0  0  0  0  0
    3.3309    0.7667   -3.5023 H   0  0  0  0  0  0
    4.9854    0.5290   -3.9856 H   0  0  0  0  0  0
    5.5436   -0.6176   -1.8709 H   0  0  0  0  0  0
    4.2091   -1.3737   -2.5590 H   0  0  0  0  0  0
   -0.4855   -0.2998   -0.8575 H   0  0  0  0  0  0
    1.8261    0.6491    0.7923 H   0  0  0  0  0  0
   -0.2270   -0.1033    2.1808 H   0  0  0  0  0  0
   -1.6418   -0.6474    1.3072 H   0  0  0  0  0  0
   -0.2750   -2.5639    0.3696 H   0  0  0  0  0  0
    1.0731   -2.0471    1.3522 H   0  0  0  0  0  0
   -0.1473   -3.8826    2.4717 H   0  0  0  0  0  0
   -1.6389   -2.9468    2.4528 H   0  0  0  0  0  0
   -0.2734   -2.4145    3.4345 H   0  0  0  0  0  0
    4.7517   -1.0103    0.8949 H   0  0  0  0  0  0
    3.1089   -5.1877    0.7953 H   0  0  0  0  0  0
    3.7927   -6.5262    2.7121 H   0  0  0  0  0  0
    6.0868   -3.2108    4.2111 H   0  0  0  0  0  0
    5.4225   -1.8759    2.3202 H   0  0  0  0  0  0
   -6.6447    2.8229   -0.5340 H   0  0  0  0  0  0
   -8.1889    4.6927   -0.3890 H   0  0  0  0  0  0
   -4.9067    7.3495    0.4383 H   0  0  0  0  0  0
   -3.3497    5.4641    0.2932 H   0  0  0  0  0  0
   -9.3312    8.1421    0.0817 H   0  0  0  0  0  0
   -9.3005    6.4985    0.7094 H   0  0  0  0  0  0
   -9.1088    6.7983   -1.0332 H   0  0  0  0  0  0
  1 21  1  0  0  0
  1  2  1  0  0  0
  1  6  1  0  0  0
  1  7  1  0  0  0
  2  3  1  0  0  0
  2 43  1  0  0  0
  2 44  1  0  0  0
  3  4  1  0  0  0
  3 45  1  0  0  0
  3 46  1  0  0  0
  4  5  1  0  0  0
  4 47  1  0  0  0
  4 48  1  0  0  0
  5  6  1  0  0  0
  5 49  1  0  0  0
  5 50  1  0  0  0
  6 51  1  0  0  0
  6 52  1  0  0  0
  7  8  2  0  0  0
  7 17  1  0  0  0
  9 10  1  0  0  0
  9 13  1  0  0  0
 10 11  2  0  0  0
 10 35  1  0  0  0
 11 12  1  0  0  0
 12 13  2  0  0  0
 13 14  1  0  0  0
 14 15  2  0  0  0
 14 16  1  0  0  0
 16 17  1  0  0  0
 16 18  1  0  0  0
 16 53  1  0  0  0
 17 54  1  0  0  0
 18 19  1  0  0  0
 18 55  1  0  0  0
 18 56  1  0  0  0
 19 20  1  0  0  0
 19 57  1  0  0  0
 19 58  1  0  0  0
 20 59  1  0  0  0
 20 60  1  0  0  0
 20 61  1  0  0  0
 21 22  1  0  0  0
 21 62  1  0  0  0
 22 23  1  0  0  0
 22 24  2  0  0  0
 23 25  2  0  0  0
 23 29  1  0  0  0
 25 26  1  0  0  0
 25 63  1  0  0  0
 26 27  2  0  0  0
 26 64  1  0  0  0
 27 28  1  0  0  0
 27 30  1  0  0  0
 28 29  2  0  0  0
 28 65  1  0  0  0
 29 66  1  0  0  0
 30 31  1  0  0  0
 31 32  1  0  0  0
 31 33  1  0  0  0
 31 34  1  0  0  0
 35 36  2  0  0  0
 35 40  1  0  0  0
 36 37  1  0  0  0
 36 67  1  0  0  0
 37 38  2  0  0  0
 37 68  1  0  0  0
 38 39  1  0  0  0
 38 41  1  0  0  0
 39 40  2  0  0  0
 39 69  1  0  0  0
 40 70  1  0  0  0
 41 42  1  0  0  0
 42 71  1  0  0  0
 42 72  1  0  0  0
 42 73  1  0  0  0
M  END
> <chembl_id>
CHEMBL210198

> <chembl_pref_name>
None

> <i_m_ct_stereo_status>
1

> <s_m_source_file>
sdf/inactives_sanitized.sdf

> <i_m_source_file_index>
55

> <i_lp_mmshare_version>
49012

> <i_f3d_flags>
0

> <s_epik_input>
RkMoRikoRilPYyhbY0hdW2NIXTEpW2NIXVtjSF1jMUMoPU8pW05IXUMyKFtDSDJdW0NIMl1bQ0gyXVtDSDJdW0NIMl0yKUMoPU8pW05IXVtDQEBIXShbQ0gyXVtDSDJdW0NIM10pQyg9TyljKG5uMylvYzMtYzRbY0hdW2NIXWMoW2NIXVtjSF00KU9bQ0gzXQ==

> <s_epik_cmdline>
J2VwaWtfcHl0aG9uJywgJy1waHQnLCAnMC41JywgJy1waCcsICc3LjUnLCAnLW50JywgJy1tYScsICcyMDAnLCAnLWltYWUnLCAnPGluZmlsZS5tYWU+JywgJy1vbWFlJywgJzxvdXRmaWxlLm1hZT4n

> <r_lp_tautomer_probability>
1

> <r_epik_Ionization_Penalty>
  0.0000

> <r_epik_Ionization_Penalty_Charging>
  0.0000

> <r_epik_Ionization_Penalty_Neutral>
  0.0000

> <r_epik_State_Penalty>
 -0.0000

> <r_epik_Charging_Adjusted_Penalty>
0

> <i_epik_Tot_Q>
0

> <i_epik_Tot_abs_Q>
0

> <s_lp_Force_Field>
OPLS3e

> <r_lp_Energy>
65.724754

> <b_lp_Chiralities_Consistent>
1

> <s_lp_Variant>
sdf/inactives_sanitized.sdf:55-1

$$$$
sdf/inactives_sanitized.sdf:56
                    3D
 Schrodinger Suite 2020-1.
 82 87  0  0  1  0            999 V2000
   -3.3201   -8.8778    4.0822 C   0  0  0  0  0  0
   -1.8110   -8.5299    4.1653 C   0  0  2  0  0  0
   -3.8714   -8.7262    2.6407 C   0  0  1  0  0  0
   -1.6227   -7.0715    3.6690 C   0  0  0  0  0  0
   -3.6391   -7.2610    2.1863 C   0  0  0  0  0  0
   -2.1298   -6.8561    2.2110 C   0  0  0  0  0  0
   -3.0544   -9.6597    1.7082 C   0  0  0  0  0  0
   -1.5373   -9.3337    1.7387 C   0  0  2  0  0  0
   -1.0422   -9.4712    3.2020 C   0  0  0  0  0  0
   -1.3480   -7.8569    1.3008 C   0  0  0  0  0  0
   -2.6775    0.5063    1.0675 C   0  0  0  0  0  0
   -2.5579   -0.7603    0.8963 N   0  0  0  0  0  0
    0.1182    0.2717    0.0932 N   0  0  0  0  0  0
   -1.7851   -1.2648   -0.2392 C   0  0  1  0  0  0
   -0.2573   -1.0490   -0.0200 C   0  0  0  0  0  0
   -2.1923   -2.7383   -0.4906 C   0  0  0  0  0  0
   -1.9206   -3.5816    0.6286 O   0  0  0  0  0  0
    0.5117   -2.0097    0.0828 O   0  0  0  0  0  0
   -2.0286    1.5188    0.1821 C   0  0  0  0  0  0
   -0.6972    1.3764   -0.3163 C   0  0  0  0  0  0
   -0.1645    2.4521   -1.0513 C   0  0  0  0  0  0
   -0.9192    3.5722   -1.3819 C   0  0  0  0  0  0
   -2.2340    3.6677   -0.9538 C   0  0  0  0  0  0
   -2.7789    2.6523   -0.1787 C   0  0  0  0  0  0
   -3.4655    1.0026    2.2217 C   0  0  0  0  0  0
   -3.0360    2.1248    2.9470 C   0  0  0  0  0  0
   -3.7798    2.5921    4.0265 C   0  0  0  0  0  0
   -4.9498    1.9350    4.3961 C   0  0  0  0  0  0
   -5.3835    0.8135    3.6947 C   0  0  0  0  0  0
   -4.6438    0.3470    2.6113 C   0  0  0  0  0  0
   -2.2506   -4.8862    0.6065 C   0  0  0  0  0  0
   -1.9110   -5.4514    1.8300 N   0  0  0  0  0  0
   -2.7732   -5.4612   -0.3511 O   0  0  0  0  0  0
    1.5574    0.5063    0.4092 C   0  0  0  0  0  0
    1.8543    0.4592    1.9295 C   0  0  0  0  0  0
    3.0127    0.6550    2.2960 O   0  0  0  0  0  0
    0.8490    0.2127    2.7949 N   0  0  0  0  0  0
    0.9672    0.1213    4.2480 C   0  0  0  0  0  0
    0.1276    1.1672    4.9533 C   0  0  0  0  0  0
    0.6300    2.1594    5.7144 C   0  0  0  0  0  0
   -0.2097    3.1440    6.3860 C   0  0  0  0  0  0
    0.5285    4.0710    7.0337 O   0  0  0  0  0  0
   -1.4436    3.1204    6.3649 O   0  0  0  0  0  0
   -0.0969    5.1201    7.7591 C   0  0  0  0  0  0
   -3.4859   -9.8963    4.4370 H   0  0  0  0  0  0
   -3.8853   -8.2397    4.7636 H   0  0  0  0  0  0
   -1.4451   -8.6403    5.1868 H   0  0  0  0  0  0
   -4.9323   -8.9773    2.6046 H   0  0  0  0  0  0
   -2.1386   -6.3905    4.3489 H   0  0  0  0  0  0
   -0.5673   -6.8011    3.7411 H   0  0  0  0  0  0
   -4.0544   -7.1382    1.1853 H   0  0  0  0  0  0
   -4.2174   -6.5855    2.8194 H   0  0  0  0  0  0
   -3.4288   -9.5802    0.6862 H   0  0  0  0  0  0
   -3.2152  -10.7006    1.9935 H   0  0  0  0  0  0
   -0.9851  -10.0048    1.0796 H   0  0  0  0  0  0
   -1.1476  -10.5057    3.5327 H   0  0  0  0  0  0
    0.0273   -9.2604    3.2529 H   0  0  0  0  0  0
   -0.2848   -7.6091    1.3011 H   0  0  0  0  0  0
   -1.6632   -7.7584    0.2613 H   0  0  0  0  0  0
   -2.0647   -0.7460   -1.1604 H   0  0  0  0  0  0
   -3.2571   -2.7838   -0.7268 H   0  0  0  0  0  0
   -1.6627   -3.1206   -1.3652 H   0  0  0  0  0  0
    0.8480    2.4154   -1.4230 H   0  0  0  0  0  0
   -0.4834    4.3644   -1.9727 H   0  0  0  0  0  0
   -2.8275    4.5328   -1.2105 H   0  0  0  0  0  0
   -3.8014    2.7657    0.1541 H   0  0  0  0  0  0
   -2.1241    2.6426    2.6844 H   0  0  0  0  0  0
   -3.4490    3.4605    4.5767 H   0  0  0  0  0  0
   -5.5250    2.2982    5.2353 H   0  0  0  0  0  0
   -6.2919    0.3085    3.9887 H   0  0  0  0  0  0
   -4.9986   -0.5224    2.0757 H   0  0  0  0  0  0
   -1.4855   -4.8496    2.5196 H   0  0  0  0  0  0
    2.1934   -0.2212   -0.0982 H   0  0  0  0  0  0
    1.8938    1.4780    0.0560 H   0  0  0  0  0  0
   -0.0627    0.0053    2.4138 H   0  0  0  0  0  0
    0.6249   -0.8696    4.5471 H   0  0  0  0  0  0
    2.0047    0.1913    4.5827 H   0  0  0  0  0  0
   -0.9406    1.0725    4.8105 H   0  0  0  0  0  0
    1.6987    2.2532    5.8497 H   0  0  0  0  0  0
    0.6607    5.7681    8.1994 H   0  0  0  0  0  0
   -0.7155    4.7235    8.5655 H   0  0  0  0  0  0
   -0.7253    5.7278    7.1063 H   0  0  0  0  0  0
  1  2  1  0  0  0
  1  3  1  0  0  0
  1 45  1  0  0  0
  1 46  1  0  0  0
  2  4  1  0  0  0
  2  9  1  0  0  0
  2 47  1  0  0  0
  3  5  1  0  0  0
  3  7  1  0  0  0
  3 48  1  0  0  0
  4  6  1  0  0  0
  4 49  1  0  0  0
  4 50  1  0  0  0
  5  6  1  0  0  0
  5 51  1  0  0  0
  5 52  1  0  0  0
  6 10  1  0  0  0
  6 32  1  0  0  0
  7  8  1  0  0  0
  7 53  1  0  0  0
  7 54  1  0  0  0
  8 10  1  0  0  0
  8  9  1  0  0  0
  8 55  1  0  0  0
  9 56  1  0  0  0
  9 57  1  0  0  0
 10 58  1  0  0  0
 10 59  1  0  0  0
 11 19  1  0  0  0
 11 12  2  0  0  0
 11 25  1  0  0  0
 12 14  1  0  0  0
 13 20  1  0  0  0
 13 15  1  0  0  0
 13 34  1  0  0  0
 14 15  1  0  0  0
 14 16  1  0  0  0
 14 60  1  0  0  0
 15 18  2  0  0  0
 16 17  1  0  0  0
 16 61  1  0  0  0
 16 62  1  0  0  0
 17 31  1  0  0  0
 19 24  2  0  0  0
 19 20  1  0  0  0
 20 21  2  0  0  0
 21 22  1  0  0  0
 21 63  1  0  0  0
 22 23  2  0  0  0
 22 64  1  0  0  0
 23 24  1  0  0  0
 23 65  1  0  0  0
 24 66  1  0  0  0
 25 26  2  0  0  0
 25 30  1  0  0  0
 26 27  1  0  0  0
 26 67  1  0  0  0
 27 28  2  0  0  0
 27 68  1  0  0  0
 28 29  1  0  0  0
 28 69  1  0  0  0
 29 30  2  0  0  0
 29 70  1  0  0  0
 30 71  1  0  0  0
 31 32  1  0  0  0
 31 33  2  0  0  0
 32 72  1  0  0  0
 34 35  1  0  0  0
 34 73  1  0  0  0
 34 74  1  0  0  0
 35 36  2  0  0  0
 35 37  1  0  0  0
 37 38  1  0  0  0
 37 75  1  0  0  0
 38 39  1  0  0  0
 38 76  1  0  0  0
 38 77  1  0  0  0
 39 40  2  0  0  0
 39 78  1  0  0  0
 40 41  1  0  0  0
 40 79  1  0  0  0
 41 42  1  0  0  0
 41 43  2  0  0  0
 42 44  1  0  0  0
 44 80  1  0  0  0
 44 81  1  0  0  0
 44 82  1  0  0  0
M  END
> <chembl_id>
CHEMBL1171802

> <chembl_pref_name>
None

> <i_m_ct_stereo_status>
1

> <s_m_source_file>
sdf/inactives_sanitized.sdf

> <i_m_source_file_index>
56

> <i_lp_mmshare_version>
49012

> <i_f3d_flags>
0

> <s_epik_input>
W0NIMl0xW0NASF0oW0NIMl0yKVtDSDJdW0NASF0oW0NIMl0zKVtDSDJdW0NAQEhdMVtDSDJdQzIzW05IXUMoPU8pT1tDSDJdW0NAQEhdKE49QzRjNVtjSF1bY0hdW2NIXVtjSF1bY0hdNSlDKD1PKU4oYyhjNDYpW2NIXVtjSF1bY0hdW2NIXTYpW0NIMl1DKD1PKVtOSF1bQ0gyXS9bQ0hdPVtDSF0vQyg9TylPW0NIM10=

> <s_epik_cmdline>
J2VwaWtfcHl0aG9uJywgJy1waHQnLCAnMC41JywgJy1waCcsICc3LjUnLCAnLW50JywgJy1tYScsICcyMDAnLCAnLWltYWUnLCAnPGluZmlsZS5tYWU+JywgJy1vbWFlJywgJzxvdXRmaWxlLm1hZT4n

> <r_lp_tautomer_probability>
1

> <r_epik_Ionization_Penalty>
  0.0000

> <r_epik_Ionization_Penalty_Charging>
  0.0000

> <r_epik_Ionization_Penalty_Neutral>
  0.0000

> <r_epik_State_Penalty>
 -0.0000

> <r_epik_Charging_Adjusted_Penalty>
0

> <i_epik_Tot_Q>
0

> <i_epik_Tot_abs_Q>
0

> <s_epik_Chemistry_Notes>
This compound has an ester and may undergo hydrolysis at high or low pH. This compound has an imine and may undergo hydrolysis.

> <s_lp_Force_Field>
OPLS3e

> <r_lp_Energy>
45.700157

> <b_lp_Chiralities_Consistent>
1

> <s_lp_Variant>
sdf/inactives_sanitized.sdf:56-1

$$$$
sdf/inactives_sanitized.sdf:57
                    3D
 Schrodinger Suite 2020-1.
 26 27  0  0  1  0            999 V2000
   -0.0299    0.0321   -0.2353 S   0  0  0  0  0  0
   -0.3632   -0.3895   -1.6011 O   0  0  0  0  0  0
   -0.5897   -0.7022    0.9048 O   0  0  0  0  0  0
    3.9120   -0.3598   -1.1651 C   0  0  0  0  0  0
    4.5732   -0.0862    0.0277 C   0  0  0  0  0  0
    3.8411    0.2291    1.1695 C   0  0  0  0  0  0
    2.4416    0.2777    1.1375 C   0  0  0  0  0  0
    1.7696    0.0043   -0.0751 C   0  0  0  0  0  0
    2.5208   -0.3162   -1.2145 C   0  0  0  0  0  0
   -0.4746    1.8660   -0.0771 C   0  0  2  0  0  0
   -1.1501    2.2653    1.0866 O   0  0  0  0  0  0
   -1.9299    2.1984   -0.0811 C   0  0  0  0  0  0
    1.7239    0.6249    2.4400 C   0  0  0  0  0  0
    1.5895   -0.5791    3.3848 C   0  0  0  0  0  0
    4.4768   -0.6064   -2.0522 H   0  0  0  0  0  0
    5.6520   -0.1198    0.0685 H   0  0  0  0  0  0
    4.3695    0.4340    2.0894 H   0  0  0  0  0  0
    2.0357   -0.5334   -2.1544 H   0  0  0  0  0  0
    0.2702    2.5355   -0.5066 H   0  0  0  0  0  0
   -2.6769    1.4048   -0.1134 H   0  0  0  0  0  0
   -2.2730    3.1517   -0.4831 H   0  0  0  0  0  0
    2.2802    1.4152    2.9466 H   0  0  0  0  0  0
    0.7447    1.0548    2.2514 H   0  0  0  0  0  0
    1.0744   -0.2952    4.3028 H   0  0  0  0  0  0
    2.5663   -0.9755    3.6639 H   0  0  0  0  0  0
    1.0215   -1.3882    2.9253 H   0  0  0  0  0  0
  1  2  2  0  0  0
  1  3  2  0  0  0
  1  8  1  0  0  0
  1 10  1  0  0  0
  4  5  2  0  0  0
  4  9  1  0  0  0
  4 15  1  0  0  0
  5  6  1  0  0  0
  5 16  1  0  0  0
  6  7  2  0  0  0
  6 17  1  0  0  0
  7  8  1  0  0  0
  7 13  1  0  0  0
  8  9  2  0  0  0
  9 18  1  0  0  0
 10 11  1  0  0  0
 10 12  1  0  0  0
 10 19  1  0  0  0
 11 12  1  0  0  0
 12 20  1  0  0  0
 12 21  1  0  0  0
 13 14  1  0  0  0
 13 22  1  0  0  0
 13 23  1  0  0  0
 14 24  1  0  0  0
 14 25  1  0  0  0
 14 26  1  0  0  0
M  END
> <chembl_id>
CHEMBL2387617

> <chembl_pref_name>
None

> <s_m_source_file>
sdf/inactives_sanitized.sdf

> <i_m_source_file_index>
57

> <i_lp_mmshare_version>
49012

> <i_m_ct_stereo_status>
1

> <i_f3d_flags>
0

> <s_epik_input>
W0NIMl0xT1tDQEhdMVMoPU8pKD1PKWMyW2NIXVtjSF1bY0hdW2NIXWMyW0NIMl1bQ0gzXQ==

> <s_epik_cmdline>
J2VwaWtfcHl0aG9uJywgJy1waHQnLCAnMC41JywgJy1waCcsICc3LjUnLCAnLW50JywgJy1tYScsICcyMDAnLCAnLWltYWUnLCAnPGluZmlsZS5tYWU+JywgJy1vbWFlJywgJzxvdXRmaWxlLm1hZT4n

> <r_lp_tautomer_probability>
1

> <r_epik_Ionization_Penalty>
  0.0000

> <r_epik_Ionization_Penalty_Charging>
  0.0000

> <r_epik_Ionization_Penalty_Neutral>
  0.0000

> <r_epik_State_Penalty>
 -0.0000

> <r_epik_Charging_Adjusted_Penalty>
0

> <i_epik_Tot_Q>
0

> <i_epik_Tot_abs_Q>
0

> <s_lp_Force_Field>
OPLS3e

> <r_lp_Energy>
12.742827

> <b_lp_Chiralities_Consistent>
1

> <s_lp_Variant>
sdf/inactives_sanitized.sdf:57-1

$$$$
sdf/inactives_sanitized.sdf:58
                    3D
 Schrodinger Suite 2020-1.
 51 53  0  0  1  0            999 V2000
   -1.5944   -2.5460    0.1691 C   0  0  1  0  0  0
   -2.3232   -4.1700   -0.9637 N   0  0  0  0  0  0
   -2.3409   -2.7006   -1.1956 C   0  0  1  0  0  0
   -1.5743   -4.0919    0.2074 C   0  0  0  0  0  0
    2.0854    0.3675   -1.5380 N   0  0  0  0  0  0
   -0.2528   -1.9609    0.1254 N   0  0  0  0  0  0
    0.0396   -0.7401   -0.3577 C   0  0  0  0  0  0
    1.8099   -0.1773   -2.8250 C   0  0  0  0  0  0
    1.5316   -0.3150   -0.3104 C   0  0  2  0  0  0
   -3.5895   -2.0556   -1.1907 O   0  0  0  0  0  0
   -4.4994   -2.4182   -2.1390 C   0  0  0  0  0  0
    2.4591    0.4896   -3.8288 O   0  0  0  0  0  0
   -1.1199   -4.9411    0.9708 O   0  0  0  0  0  0
   -0.8074    0.0238   -0.8255 O   0  0  0  0  0  0
    1.0590   -1.1280   -3.0622 O   0  0  0  0  0  0
   -4.3451   -3.2415   -3.0439 O   0  0  0  0  0  0
    2.4173    0.0522   -5.1867 C   0  0  0  0  0  0
    3.2993    1.2232   -1.4294 C   0  0  0  0  0  0
    3.3788   -1.1056   -5.4169 C   0  0  0  0  0  0
    1.7392    0.5056    0.9992 C   0  0  0  0  0  0
   -5.8120   -1.6610   -1.9834 C   0  0  0  0  0  0
    2.8837   -2.3981   -5.6056 C   0  0  0  0  0  0
    4.7557   -0.8698   -5.4352 C   0  0  0  0  0  0
    3.2303    2.1133   -0.1821 C   0  0  0  0  0  0
    3.0565    1.2761    1.0772 C   0  0  0  0  0  0
    5.6379   -1.9273   -5.6407 C   0  0  0  0  0  0
    3.7665   -3.4554   -5.8095 C   0  0  0  0  0  0
    5.1392   -3.2152   -5.8264 C   0  0  0  0  0  0
   -2.1385   -2.0629    0.9826 H   0  0  0  0  0  0
   -2.9955   -4.8776   -1.2219 H   0  0  0  0  0  0
   -1.7821   -2.3649   -2.0745 H   0  0  0  0  0  0
    0.4746   -2.4772    0.5986 H   0  0  0  0  0  0
    2.0734   -1.2569   -0.2077 H   0  0  0  0  0  0
    1.4031   -0.2198   -5.4847 H   0  0  0  0  0  0
    2.7122    0.8807   -5.8310 H   0  0  0  0  0  0
    4.1964    0.6051   -1.4845 H   0  0  0  0  0  0
    3.3325    1.9419   -2.2492 H   0  0  0  0  0  0
    0.9259    1.2213    1.1431 H   0  0  0  0  0  0
    1.7148   -0.1724    1.8541 H   0  0  0  0  0  0
   -5.6748   -0.6125   -2.2474 H   0  0  0  0  0  0
   -6.1641   -1.7167   -0.9534 H   0  0  0  0  0  0
   -6.5801   -2.0821   -2.6321 H   0  0  0  0  0  0
    1.8195   -2.5849   -5.5878 H   0  0  0  0  0  0
    5.1410    0.1289   -5.2885 H   0  0  0  0  0  0
    2.4189    2.8371   -0.2781 H   0  0  0  0  0  0
    4.1468    2.6999   -0.1088 H   0  0  0  0  0  0
    3.8924    0.5828    1.1838 H   0  0  0  0  0  0
    3.0668    1.9149    1.9613 H   0  0  0  0  0  0
    6.7031   -1.7500   -5.6553 H   0  0  0  0  0  0
    3.3889   -4.4571   -5.9522 H   0  0  0  0  0  0
    5.8235   -4.0357   -5.9844 H   0  0  0  0  0  0
  1  3  1  0  0  0
  1  4  1  0  0  0
  1  6  1  0  0  0
  1 29  1  0  0  0
  2  4  1  0  0  0
  2  3  1  0  0  0
  2 30  1  0  0  0
  3 10  1  0  0  0
  3 31  1  0  0  0
  4 13  2  0  0  0
  5  9  1  0  0  0
  5  8  1  0  0  0
  5 18  1  0  0  0
  6  7  1  0  0  0
  6 32  1  0  0  0
  7  9  1  0  0  0
  7 14  2  0  0  0
  8 12  1  0  0  0
  8 15  2  0  0  0
  9 20  1  0  0  0
  9 33  1  0  0  0
 10 11  1  0  0  0
 11 16  2  0  0  0
 11 21  1  0  0  0
 12 17  1  0  0  0
 17 19  1  0  0  0
 17 34  1  0  0  0
 17 35  1  0  0  0
 18 24  1  0  0  0
 18 36  1  0  0  0
 18 37  1  0  0  0
 19 22  2  0  0  0
 19 23  1  0  0  0
 20 25  1  0  0  0
 20 38  1  0  0  0
 20 39  1  0  0  0
 21 40  1  0  0  0
 21 41  1  0  0  0
 21 42  1  0  0  0
 22 27  1  0  0  0
 22 43  1  0  0  0
 23 26  2  0  0  0
 23 44  1  0  0  0
 24 25  1  0  0  0
 24 45  1  0  0  0
 24 46  1  0  0  0
 25 47  1  0  0  0
 25 48  1  0  0  0
 26 28  1  0  0  0
 26 49  1  0  0  0
 27 28  2  0  0  0
 27 50  1  0  0  0
 28 51  1  0  0  0
M  END
> <chembl_id>
CHEMBL62923

> <chembl_pref_name>
None

> <i_m_ct_stereo_status>
1

> <s_m_source_file>
sdf/inactives_sanitized.sdf

> <i_m_source_file_index>
58

> <i_lp_mmshare_version>
49012

> <i_f3d_flags>
0

> <s_epik_input>
Tz1DMVtOSF1bQ0BASF0oT0MoPU8pW0NIM10pW0NAQEhdMVtOSF1DKD1PKVtDQEhdKFtDSDJdW0NIMl1bQ0gyXVtDSDJdMilOMkMoPU8pT1tDSDJdYzNbY0hdW2NIXVtjSF1bY0hdW2NIXTM=

> <s_epik_cmdline>
J2VwaWtfcHl0aG9uJywgJy1waHQnLCAnMC41JywgJy1waCcsICc3LjUnLCAnLW50JywgJy1tYScsICcyMDAnLCAnLWltYWUnLCAnPGluZmlsZS5tYWU+JywgJy1vbWFlJywgJzxvdXRmaWxlLm1hZT4n

> <r_lp_tautomer_probability>
1

> <r_epik_Ionization_Penalty>
  0.0000

> <r_epik_Ionization_Penalty_Charging>
  0.0000

> <r_epik_Ionization_Penalty_Neutral>
  0.0000

> <r_epik_State_Penalty>
 -0.0000

> <r_epik_Charging_Adjusted_Penalty>
0

> <i_epik_Tot_Q>
0

> <i_epik_Tot_abs_Q>
0

> <s_epik_Chemistry_Notes>
This compound has an ester and may undergo hydrolysis at high or low pH. This compound contains an acetal/aminal-like group ( X-CH(R)-Y where X, Y are N, S, or O) that may be acid/base labile, releasing an aldehyde.

> <s_lp_Force_Field>
OPLS3e

> <r_lp_Energy>
41.116504

> <b_lp_Chiralities_Consistent>
1

> <s_lp_Variant>
sdf/inactives_sanitized.sdf:58-1

$$$$
sdf/inactives_sanitized.sdf:59
                    3D
 Schrodinger Suite 2020-1.
 52 54  0  0  1  0            999 V2000
   -0.8677    1.8285    1.9101 S   0  0  0  0  0  0
   -0.7716    1.1312    0.2796 N   0  0  1  0  0  0
   -0.0843   -0.1712    0.0437 C   0  0  2  0  0  0
    1.4153   -0.1315    0.3989 C   0  0  0  0  0  0
   -1.4499    3.5024    1.6523 C   0  0  0  0  0  0
    1.9005   -1.1897    1.0710 N   0  0  0  0  0  0
   -1.9100    1.0952    2.6381 O   0  0  0  0  0  0
    0.4902    1.9265    2.4583 O   0  0  0  0  0  0
    2.1300    0.7924    0.0044 O   0  0  0  0  0  0
    3.3024   -1.3612    1.4763 C   0  0  2  0  0  0
   -0.5409    4.4946    1.2802 C   0  0  0  0  0  0
   -2.8080    3.8013    1.7807 C   0  0  0  0  0  0
    2.6971   -3.7316    1.5977 O   0  0  0  0  0  0
   -1.9844    1.1776   -0.5739 C   0  0  0  0  0  0
    3.5391   -2.8413    1.7352 C   0  0  0  0  0  0
   -0.3098   -0.3722   -1.4621 C   0  0  0  0  0  0
    3.6292   -0.5054    2.7307 C   0  0  0  0  0  0
   -3.2551    5.0985    1.5456 C   0  0  0  0  0  0
   -0.9899    5.7912    1.0451 C   0  0  0  0  0  0
   -2.3474    6.0927    1.1754 C   0  0  0  0  0  0
    5.1070   -0.2441    2.9676 C   0  0  0  0  0  0
   -1.6371    0.3017   -1.7790 C   0  0  0  0  0  0
   -2.8442    7.5043    0.9219 C   0  0  0  0  0  0
    5.8611   -1.0966    3.8021 C   0  0  0  0  0  0
    5.7737    0.7546    2.2265 C   0  0  0  0  0  0
    7.1431    0.9315    2.3744 C   0  0  0  0  0  0
    7.2297   -0.9031    3.9366 C   0  0  0  0  0  0
    7.8664    0.1100    3.2303 C   0  0  0  0  0  0
   -0.5720   -0.9700    0.6073 H   0  0  0  0  0  0
    1.2776   -1.9428    1.3258 H   0  0  0  0  0  0
    3.9455   -1.0694    0.6429 H   0  0  0  0  0  0
    0.5084    4.2630    1.1676 H   0  0  0  0  0  0
   -3.5183    3.0356    2.0557 H   0  0  0  0  0  0
   -2.8170    0.7468   -0.0152 H   0  0  0  0  0  0
   -2.3213    2.1966   -0.7657 H   0  0  0  0  0  0
    4.5530   -3.0784    2.0580 H   0  0  0  0  0  0
    0.4925    0.0556   -2.0681 H   0  0  0  0  0  0
   -0.3493   -1.4339   -1.7103 H   0  0  0  0  0  0
    3.1501    0.4711    2.6412 H   0  0  0  0  0  0
    3.1775   -0.9349    3.6273 H   0  0  0  0  0  0
   -4.3061    5.3282    1.6467 H   0  0  0  0  0  0
   -0.2824    6.5555    0.7577 H   0  0  0  0  0  0
   -2.4241   -0.4323   -1.9593 H   0  0  0  0  0  0
   -1.5483    0.9062   -2.6825 H   0  0  0  0  0  0
   -2.0246    8.2194    0.8402 H   0  0  0  0  0  0
   -3.4832    7.8311    1.7433 H   0  0  0  0  0  0
   -3.4382    7.5382    0.0081 H   0  0  0  0  0  0
    5.3771   -1.8982    4.3407 H   0  0  0  0  0  0
    5.2207    1.3847    1.5447 H   0  0  0  0  0  0
    7.6489    1.7054    1.8161 H   0  0  0  0  0  0
    7.8026   -1.5475    4.5872 H   0  0  0  0  0  0
    8.9317    0.2520    3.3376 H   0  0  0  0  0  0
  1  2  1  0  0  0
  1  5  1  0  0  0
  1  7  2  0  0  0
  1  8  2  0  0  0
  2  3  1  0  0  0
  2 14  1  0  0  0
  3  4  1  0  0  0
  3 16  1  0  0  0
  3 29  1  0  0  0
  4  6  1  0  0  0
  4  9  2  0  0  0
  5 11  2  0  0  0
  5 12  1  0  0  0
  6 10  1  0  0  0
  6 30  1  0  0  0
 10 15  1  0  0  0
 10 17  1  0  0  0
 10 31  1  0  0  0
 11 19  1  0  0  0
 11 32  1  0  0  0
 12 18  2  0  0  0
 12 33  1  0  0  0
 13 15  2  0  0  0
 14 22  1  0  0  0
 14 34  1  0  0  0
 14 35  1  0  0  0
 15 36  1  0  0  0
 16 22  1  0  0  0
 16 37  1  0  0  0
 16 38  1  0  0  0
 17 21  1  0  0  0
 17 39  1  0  0  0
 17 40  1  0  0  0
 18 20  1  0  0  0
 18 41  1  0  0  0
 19 20  2  0  0  0
 19 42  1  0  0  0
 20 23  1  0  0  0
 21 24  2  0  0  0
 21 25  1  0  0  0
 22 43  1  0  0  0
 22 44  1  0  0  0
 23 45  1  0  0  0
 23 46  1  0  0  0
 23 47  1  0  0  0
 24 27  1  0  0  0
 24 48  1  0  0  0
 25 26  2  0  0  0
 25 49  1  0  0  0
 26 28  1  0  0  0
 26 50  1  0  0  0
 27 28  2  0  0  0
 27 51  1  0  0  0
 28 52  1  0  0  0
M  END
> <chembl_id>
CHEMBL446429

> <chembl_pref_name>
None

> <s_m_source_file>
sdf/inactives_sanitized.sdf

> <i_m_source_file_index>
59

> <i_lp_mmshare_version>
49012

> <i_m_ct_stereo_status>
1

> <i_f3d_flags>
0

> <s_epik_input>
W2NIXTFbY0hdYyhbQ0gzXSlbY0hdW2NIXWMxUyg9TykoPU8pTjJbQ0BASF0oW0NIMl1bQ0gyXVtDSDJdMilDKD1PKVtOSF1bQ0BIXShbQ0hdPU8pW0NIMl1jM1tjSF1bY0hdW2NIXVtjSF1bY0hdMw==

> <s_epik_cmdline>
J2VwaWtfcHl0aG9uJywgJy1waHQnLCAnMC41JywgJy1waCcsICc3LjUnLCAnLW50JywgJy1tYScsICcyMDAnLCAnLWltYWUnLCAnPGluZmlsZS5tYWU+JywgJy1vbWFlJywgJzxvdXRmaWxlLm1hZT4n

> <r_lp_tautomer_probability>
1

> <r_epik_Ionization_Penalty>
  0.0029

> <r_epik_Ionization_Penalty_Charging>
  0.0000

> <r_epik_Ionization_Penalty_Neutral>
  0.0029

> <r_epik_State_Penalty>
 -0.0000

> <r_epik_Charging_Adjusted_Penalty>
0

> <i_epik_Tot_Q>
0

> <i_epik_Tot_abs_Q>
0

> <s_lp_Force_Field>
OPLS3e

> <r_lp_Energy>
31.053524

> <b_lp_Chiralities_Consistent>
1

> <s_lp_Variant>
sdf/inactives_sanitized.sdf:59-1

$$$$
sdf/inactives_sanitized.sdf:60
                    3D
 Schrodinger Suite 2020-1.
 37 39  0  0  1  0            999 V2000
   -1.3746    1.9457    0.5002 C   0  0  0  0  0  0
   -1.6478    3.2151   -0.0163 C   0  0  0  0  0  0
   -2.9585    3.6836   -0.0514 C   0  0  0  0  0  0
   -3.9920    2.8841    0.4345 C   0  0  0  0  0  0
   -3.7241    1.6190    0.9552 C   0  0  0  0  0  0
   -2.4136    1.1495    0.9893 C   0  0  0  0  0  0
    0.0567    1.4376    0.5479 C   0  0  0  0  0  0
    0.4933    0.5687   -0.9941 S   0  0  0  0  0  0
    2.1707   -0.0062   -0.6445 C   0  0  0  0  0  0
    2.7042   -0.6699   -1.6176 N   0  5  0  0  0  0
    3.9631   -1.1515   -1.4799 C   0  0  0  0  0  0
    4.6389   -0.9198   -0.2349 N   0  0  0  0  0  0
    4.0024   -0.2538    0.6790 C   0  0  0  0  0  0
    2.7138    0.2762    0.5041 N   0  0  0  0  0  0
    4.5055   -1.7705   -2.3923 O   0  0  0  0  0  0
    4.8535   -0.0429    2.2567 S   0  0  0  0  0  0
    3.6245    0.9010    3.2150 C   0  0  0  0  0  0
    4.1096    1.1446    4.6343 C   0  0  0  0  0  0
    3.7903    0.2345    5.6460 C   0  0  0  0  0  0
    4.2244    0.4637    6.9489 C   0  0  0  0  0  0
    4.9730    1.6030    7.2364 C   0  0  0  0  0  0
    5.2915    2.5159    6.2332 C   0  0  0  0  0  0
    4.8576    2.2876    4.9298 C   0  0  0  0  0  0
   -5.6167    3.4657    0.3912 Cl  0  0  0  0  0  0
   -0.8479    3.8359   -0.3934 H   0  0  0  0  0  0
   -3.1701    4.6630   -0.4549 H   0  0  0  0  0  0
   -4.5275    1.0027    1.3317 H   0  0  0  0  0  0
   -2.2078    0.1684    1.3924 H   0  0  0  0  0  0
    0.7383    2.2750    0.7054 H   0  0  0  0  0  0
    0.1772    0.7698    1.4025 H   0  0  0  0  0  0
    3.4285    1.8564    2.7256 H   0  0  0  0  0  0
    2.6758    0.3620    3.2430 H   0  0  0  0  0  0
    3.2099   -0.6492    5.4235 H   0  0  0  0  0  0
    3.9813   -0.2382    7.7328 H   0  0  0  0  0  0
    5.3092    1.7806    8.2472 H   0  0  0  0  0  0
    5.8711    3.3972    6.4656 H   0  0  0  0  0  0
    5.1051    2.9959    4.1522 H   0  0  0  0  0  0
  1  6  1  0  0  0
  1  2  2  0  0  0
  1  7  1  0  0  0
  2  3  1  0  0  0
  2 25  1  0  0  0
  3  4  2  0  0  0
  3 26  1  0  0  0
  4  5  1  0  0  0
  4 24  1  0  0  0
  5  6  2  0  0  0
  5 27  1  0  0  0
  6 28  1  0  0  0
  7  8  1  0  0  0
  7 29  1  0  0  0
  7 30  1  0  0  0
  8  9  1  0  0  0
  9 14  2  0  0  0
  9 10  1  0  0  0
 10 11  1  0  0  0
 11 12  1  0  0  0
 11 15  2  0  0  0
 12 13  2  0  0  0
 13 14  1  0  0  0
 13 16  1  0  0  0
 16 17  1  0  0  0
 17 18  1  0  0  0
 17 31  1  0  0  0
 17 32  1  0  0  0
 18 19  2  0  0  0
 18 23  1  0  0  0
 19 20  1  0  0  0
 19 33  1  0  0  0
 20 21  2  0  0  0
 20 34  1  0  0  0
 21 22  1  0  0  0
 21 35  1  0  0  0
 22 23  2  0  0  0
 22 36  1  0  0  0
 23 37  1  0  0  0
M  CHG  1  10  -1
M  END
> <chembl_id>
CHEMBL1836506

> <chembl_pref_name>
None

> <s_m_source_file>
sdf/inactives_sanitized.sdf

> <i_m_source_file_index>
60

> <i_lp_mmshare_version>
49012

> <i_m_ct_stereo_status>
1

> <i_f3d_flags>
0

> <s_epik_input>
W2NIXTFbY0hdYyhDbClbY0hdW2NIXWMxW0NIMl1TYzJbbkhdYyg9TyluYyhuMilTW0NIMl1jM1tjSF1bY0hdW2NIXVtjSF1bY0hdMw==

> <s_epik_cmdline>
J2VwaWtfcHl0aG9uJywgJy1waHQnLCAnMC41JywgJy1waCcsICc3LjUnLCAnLW50JywgJy1tYScsICcyMDAnLCAnLWltYWUnLCAnPGluZmlsZS5tYWU+JywgJy1vbWFlJywgJzxvdXRmaWxlLm1hZT4n

> <r_lp_tautomer_probability>
1

> <r_epik_Ionization_Penalty>
  0.3258

> <r_epik_Ionization_Penalty_Charging>
  0.0003

> <r_epik_Ionization_Penalty_Neutral>
  0.3254

> <r_epik_State_Penalty>
 -0.0000

> <r_epik_Charging_Adjusted_Penalty>
0.000330722952361958

> <i_epik_Tot_Q>
-1

> <i_epik_Tot_abs_Q>
1

> <s_lp_Force_Field>
OPLS3e

> <r_lp_Energy>
39.184699

> <b_lp_Chiralities_Consistent>
1

> <s_lp_Variant>
sdf/inactives_sanitized.sdf:60-1

$$$$
sdf/inactives_sanitized.sdf:61
                    3D
 Schrodinger Suite 2020-1.
 41 43  0  0  1  0            999 V2000
   -0.1469    2.1074    0.9911 C   0  0  0  0  0  0
   -0.5998    2.6077   -0.3997 C   0  0  0  0  0  0
   -0.1690    1.5431   -1.8186 S   0  0  0  0  0  0
    1.5950    1.8677   -2.0149 C   0  0  0  0  0  0
    2.2417    2.7526   -1.3312 N   0  0  0  0  0  0
    3.6395    2.9287   -1.5533 C   0  0  0  0  0  0
    4.2610    2.1077   -2.5398 N   0  0  0  0  0  0
    3.5536    1.2421   -3.1855 C   0  0  0  0  0  0
    2.1910    1.0605   -2.9774 N   0  0  0  0  0  0
    4.2860    3.7566   -0.9161 O   0  0  0  0  0  0
    4.2312    0.1309   -4.4344 S   0  0  0  0  0  0
    6.0312    0.3043   -4.1759 C   0  0  0  0  0  0
    6.5081   -0.3875   -2.9046 C   0  0  0  0  0  0
    6.9408    0.3689   -1.8113 C   0  0  0  0  0  0
    7.3781   -0.2681   -0.6531 C   0  0  0  0  0  0
    7.3892   -1.6598   -0.5934 C   0  0  0  0  0  0
    6.9699   -2.4207   -1.6826 C   0  0  0  0  0  0
    6.5320   -1.7837   -2.8408 C   0  0  0  0  0  0
   -0.7570    0.7464    1.3922 C   0  0  0  0  0  0
   -1.1278    0.8715    2.8710 C   0  0  0  0  0  0
   -1.5141    2.3393    3.0258 C   0  0  0  0  0  0
   -0.5194    3.0830    2.1301 C   0  0  0  0  0  0
    0.9389    2.0025    0.9777 H   0  0  0  0  0  0
   -1.6845    2.7206   -0.4064 H   0  0  0  0  0  0
   -0.2121    3.6101   -0.5860 H   0  0  0  0  0  0
    6.5340   -0.1589   -5.0256 H   0  0  0  0  0  0
    6.3252    1.3549   -4.1989 H   0  0  0  0  0  0
    6.9350    1.4483   -1.8538 H   0  0  0  0  0  0
    7.7065    0.3147    0.1948 H   0  0  0  0  0  0
    7.7267   -2.1536    0.3058 H   0  0  0  0  0  0
    6.9834   -3.4992   -1.6287 H   0  0  0  0  0  0
    6.2063   -2.3746   -3.6848 H   0  0  0  0  0  0
   -1.6488    0.5262    0.8026 H   0  0  0  0  0  0
   -0.0568   -0.0745    1.2306 H   0  0  0  0  0  0
   -1.9356    0.1963    3.1559 H   0  0  0  0  0  0
   -0.2652    0.6407    3.4986 H   0  0  0  0  0  0
   -2.5333    2.4983    2.6691 H   0  0  0  0  0  0
   -1.4708    2.6737    4.0631 H   0  0  0  0  0  0
   -0.9462    4.0196    1.7679 H   0  0  0  0  0  0
    0.3734    3.3455    2.7008 H   0  0  0  0  0  0
    1.6620    0.3753   -3.4961 H   0  0  0  0  0  0
  1  2  1  0  0  0
  1 19  1  0  0  0
  1 22  1  0  0  0
  1 23  1  0  0  0
  2  3  1  0  0  0
  2 24  1  0  0  0
  2 25  1  0  0  0
  3  4  1  0  0  0
  4  9  1  0  0  0
  4  5  2  0  0  0
  5  6  1  0  0  0
  6  7  1  0  0  0
  6 10  2  0  0  0
  7  8  2  0  0  0
  8 11  1  0  0  0
  8  9  1  0  0  0
  9 41  1  0  0  0
 11 12  1  0  0  0
 12 13  1  0  0  0
 12 26  1  0  0  0
 12 27  1  0  0  0
 13 14  2  0  0  0
 13 18  1  0  0  0
 14 15  1  0  0  0
 14 28  1  0  0  0
 15 16  2  0  0  0
 15 29  1  0  0  0
 16 17  1  0  0  0
 16 30  1  0  0  0
 17 18  2  0  0  0
 17 31  1  0  0  0
 18 32  1  0  0  0
 19 20  1  0  0  0
 19 33  1  0  0  0
 19 34  1  0  0  0
 20 21  1  0  0  0
 20 35  1  0  0  0
 20 36  1  0  0  0
 21 22  1  0  0  0
 21 37  1  0  0  0
 21 38  1  0  0  0
 22 39  1  0  0  0
 22 40  1  0  0  0
M  END
> <chembl_id>
CHEMBL1836518

> <chembl_pref_name>
None

> <s_m_source_file>
sdf/inactives_sanitized.sdf

> <i_m_source_file_index>
61

> <i_lp_mmshare_version>
49012

> <i_m_ct_stereo_status>
1

> <i_f3d_flags>
0

> <s_epik_input>
W0NIMl0xW0NIMl1bQ0gyXVtDSDJdW0NIXTFbQ0gyXVNjMltuSF1jKD1PKW5jKG4yKVNbQ0gyXWMzW2NIXVtjSF1bY0hdW2NIXVtjSF0z

> <s_epik_cmdline>
J2VwaWtfcHl0aG9uJywgJy1waHQnLCAnMC41JywgJy1waCcsICc3LjUnLCAnLW50JywgJy1tYScsICcyMDAnLCAnLWltYWUnLCAnPGluZmlsZS5tYWU+JywgJy1vbWFlJywgJzxvdXRmaWxlLm1hZT4n

> <r_lp_tautomer_probability>
0.000308339100536342

> <r_epik_Ionization_Penalty>
  0.5048

> <r_epik_Ionization_Penalty_Charging>
  0.5024

> <r_epik_Ionization_Penalty_Neutral>
  0.0024

> <r_epik_State_Penalty>
  0.4340

> <r_epik_Charging_Adjusted_Penalty>
0.936437125458381

> <i_epik_Tot_Q>
0

> <i_epik_Tot_abs_Q>
0

> <s_lp_Force_Field>
OPLS3e

> <r_lp_Energy>
36.46519

> <b_lp_Chiralities_Consistent>
1

> <s_lp_Variant>
sdf/inactives_sanitized.sdf:61-1

$$$$
sdf/inactives_sanitized.sdf:61
                    3D
 Schrodinger Suite 2020-1.
 41 43  0  0  1  0            999 V2000
   -0.5671    2.4701   -1.9281 C   0  0  0  0  0  0
    0.2930    2.7792   -0.6775 C   0  0  0  0  0  0
    0.3122    1.5324    0.6662 S   0  0  0  0  0  0
    1.8171    0.5817    0.3530 C   0  0  0  0  0  0
    2.0715   -0.5614    1.0855 N   0  0  0  0  0  0
    3.2014   -1.3247    0.9164 C   0  0  0  0  0  0
    4.0652   -0.9408   -0.1398 N   0  0  0  0  0  0
    3.7513    0.1109   -0.8232 C   0  0  0  0  0  0
    2.6915    0.9789   -0.5233 N   0  0  0  0  0  0
    3.3240   -2.2672    1.6947 O   0  0  0  0  0  0
    4.7499    0.4101   -2.2974 S   0  0  0  0  0  0
    3.9901    1.9246   -2.9682 C   0  0  0  0  0  0
    4.6656    2.3432   -4.2631 C   0  0  0  0  0  0
    5.7505    3.2240   -4.2319 C   0  0  0  0  0  0
    6.3632    3.6135   -5.4200 C   0  0  0  0  0  0
    5.8873    3.1240   -6.6348 C   0  0  0  0  0  0
    4.8033    2.2492   -6.6728 C   0  0  0  0  0  0
    4.1897    1.8596   -5.4852 C   0  0  0  0  0  0
   -2.0740    2.2892   -1.6292 C   0  0  0  0  0  0
   -2.5154    1.0259   -2.3761 C   0  0  0  0  0  0
   -1.2478    0.1824   -2.4802 C   0  0  0  0  0  0
   -0.1454    1.2141   -2.7210 C   0  0  0  0  0  0
   -0.4645    3.3296   -2.5933 H   0  0  0  0  0  0
    1.3053    3.0475   -0.9776 H   0  0  0  0  0  0
   -0.0929    3.6926   -0.2237 H   0  0  0  0  0  0
    2.9276    1.7623   -3.1536 H   0  0  0  0  0  0
    4.0621    2.7327   -2.2384 H   0  0  0  0  0  0
    6.1209    3.6034   -3.2905 H   0  0  0  0  0  0
    7.2037    4.2913   -5.4001 H   0  0  0  0  0  0
    6.3631    3.4256   -7.5562 H   0  0  0  0  0  0
    4.4410    1.8747   -7.6188 H   0  0  0  0  0  0
    3.3495    1.1809   -5.5158 H   0  0  0  0  0  0
   -2.2583    2.1717   -0.5605 H   0  0  0  0  0  0
   -2.6548    3.1539   -1.9525 H   0  0  0  0  0  0
   -3.3213    0.5004   -1.8625 H   0  0  0  0  0  0
   -2.8744    1.2854   -3.3736 H   0  0  0  0  0  0
   -1.0699   -0.3502   -1.5443 H   0  0  0  0  0  0
   -1.3050   -0.5587   -3.2784 H   0  0  0  0  0  0
    0.8262    0.8211   -2.4299 H   0  0  0  0  0  0
   -0.0788    1.4490   -3.7848 H   0  0  0  0  0  0
    1.4307   -0.8425    1.8127 H   0  0  0  0  0  0
  1  2  1  0  0  0
  1 19  1  0  0  0
  1 22  1  0  0  0
  1 23  1  0  0  0
  2  3  1  0  0  0
  2 24  1  0  0  0
  2 25  1  0  0  0
  3  4  1  0  0  0
  4  9  2  0  0  0
  4  5  1  0  0  0
  5  6  1  0  0  0
  5 41  1  0  0  0
  6  7  1  0  0  0
  6 10  2  0  0  0
  7  8  2  0  0  0
  8 11  1  0  0  0
  8  9  1  0  0  0
 11 12  1  0  0  0
 12 13  1  0  0  0
 12 26  1  0  0  0
 12 27  1  0  0  0
 13 14  2  0  0  0
 13 18  1  0  0  0
 14 15  1  0  0  0
 14 28  1  0  0  0
 15 16  2  0  0  0
 15 29  1  0  0  0
 16 17  1  0  0  0
 16 30  1  0  0  0
 17 18  2  0  0  0
 17 31  1  0  0  0
 18 32  1  0  0  0
 19 20  1  0  0  0
 19 33  1  0  0  0
 19 34  1  0  0  0
 20 21  1  0  0  0
 20 35  1  0  0  0
 20 36  1  0  0  0
 21 22  1  0  0  0
 21 37  1  0  0  0
 21 38  1  0  0  0
 22 39  1  0  0  0
 22 40  1  0  0  0
M  END
> <chembl_id>
CHEMBL1836518

> <chembl_pref_name>
None

> <s_m_source_file>
sdf/inactives_sanitized.sdf

> <i_m_source_file_index>
61

> <i_lp_mmshare_version>
49012

> <i_m_ct_stereo_status>
1

> <i_f3d_flags>
0

> <s_epik_input>
W0NIMl0xW0NIMl1bQ0gyXVtDSDJdW0NIXTFbQ0gyXVNjMltuSF1jKD1PKW5jKG4yKVNbQ0gyXWMzW2NIXVtjSF1bY0hdW2NIXVtjSF0z

> <s_epik_cmdline>
J2VwaWtfcHl0aG9uJywgJy1waHQnLCAnMC41JywgJy1waCcsICc3LjUnLCAnLW50JywgJy1tYScsICcyMDAnLCAnLWltYWUnLCAnPGluZmlsZS5tYWU+JywgJy1vbWFlJywgJzxvdXRmaWxlLm1hZT4n

> <r_lp_tautomer_probability>
0.986814540016624

> <r_epik_Ionization_Penalty>
  0.5536

> <r_epik_Ionization_Penalty_Charging>
  0.0012

> <r_epik_Ionization_Penalty_Neutral>
  0.5525

> <r_epik_State_Penalty>
  0.5407

> <r_epik_Charging_Adjusted_Penalty>
0.541881545055362

> <i_epik_Tot_Q>
0

> <i_epik_Tot_abs_Q>
0

> <s_lp_Force_Field>
OPLS3e

> <r_lp_Energy>
38.731117

> <b_lp_Chiralities_Consistent>
1

> <s_lp_Variant>
sdf/inactives_sanitized.sdf:61-2

$$$$
sdf/inactives_sanitized.sdf:62
                    3D
 Schrodinger Suite 2020-1.
 38 40  0  0  1  0            999 V2000
   -0.6610    2.0407   -1.2192 C   0  0  0  0  0  0
   -0.0448    1.6494    0.1367 C   0  0  0  0  0  0
    1.0361    0.1785    0.1083 S   0  0  0  0  0  0
    2.6508    0.8776   -0.2906 C   0  0  0  0  0  0
    2.8982    2.1438   -0.3252 N   0  0  0  0  0  0
    4.2066    2.5963   -0.6677 C   0  0  0  0  0  0
    5.1954    1.6078   -0.9524 N   0  0  0  0  0  0
    4.8814    0.3582   -0.8971 C   0  0  0  0  0  0
    3.6053   -0.0938   -0.5679 N   0  0  0  0  0  0
    4.4710    3.7951   -0.7175 O   0  0  0  0  0  0
    6.1268   -0.9032   -1.2567 S   0  0  0  0  0  0
    5.2014   -2.4596   -1.0483 C   0  0  0  0  0  0
    6.0972   -3.6596   -1.3078 C   0  0  0  0  0  0
    6.1995   -4.1882   -2.5979 C   0  0  0  0  0  0
    7.0141   -5.2928   -2.8336 C   0  0  0  0  0  0
    7.7207   -5.8668   -1.7786 C   0  0  0  0  0  0
    7.6197   -5.3475   -0.4896 C   0  0  0  0  0  0
    6.8053   -4.2430   -0.2530 C   0  0  0  0  0  0
    0.2274    2.6987   -2.2837 C   0  0  0  0  0  0
   -1.0162    3.5096   -2.6882 C   0  0  0  0  0  0
   -1.5605    3.2817   -1.2667 C   0  0  0  0  0  0
   -1.1747    1.1576   -1.6083 H   0  0  0  0  0  0
   -0.8556    1.4168    0.8273 H   0  0  0  0  0  0
    0.4702    2.4959    0.5919 H   0  0  0  0  0  0
    4.7957   -2.5220   -0.0372 H   0  0  0  0  0  0
    4.3530   -2.4853   -1.7341 H   0  0  0  0  0  0
    5.6529   -3.7434   -3.4171 H   0  0  0  0  0  0
    7.0985   -5.7022   -3.8296 H   0  0  0  0  0  0
    8.3527   -6.7234   -1.9618 H   0  0  0  0  0  0
    8.1706   -5.7997    0.3220 H   0  0  0  0  0  0
    6.7287   -3.8408    0.7471 H   0  0  0  0  0  0
    1.0064    3.3519   -1.8858 H   0  0  0  0  0  0
    0.6344    2.0366   -3.0487 H   0  0  0  0  0  0
   -0.8322    4.5495   -2.9614 H   0  0  0  0  0  0
   -1.6147    3.0337   -3.4680 H   0  0  0  0  0  0
   -1.2577    4.0837   -0.5898 H   0  0  0  0  0  0
   -2.6334    3.1021   -1.1916 H   0  0  0  0  0  0
    3.3843   -1.0770   -0.5237 H   0  0  0  0  0  0
  1  2  1  0  0  0
  1 19  1  0  0  0
  1 21  1  0  0  0
  1 22  1  0  0  0
  2  3  1  0  0  0
  2 23  1  0  0  0
  2 24  1  0  0  0
  3  4  1  0  0  0
  4  9  1  0  0  0
  4  5  2  0  0  0
  5  6  1  0  0  0
  6  7  1  0  0  0
  6 10  2  0  0  0
  7  8  2  0  0  0
  8 11  1  0  0  0
  8  9  1  0  0  0
  9 38  1  0  0  0
 11 12  1  0  0  0
 12 13  1  0  0  0
 12 25  1  0  0  0
 12 26  1  0  0  0
 13 14  2  0  0  0
 13 18  1  0  0  0
 14 15  1  0  0  0
 14 27  1  0  0  0
 15 16  2  0  0  0
 15 28  1  0  0  0
 16 17  1  0  0  0
 16 29  1  0  0  0
 17 18  2  0  0  0
 17 30  1  0  0  0
 18 31  1  0  0  0
 19 20  1  0  0  0
 19 32  1  0  0  0
 19 33  1  0  0  0
 20 21  1  0  0  0
 20 34  1  0  0  0
 20 35  1  0  0  0
 21 36  1  0  0  0
 21 37  1  0  0  0
M  END
> <chembl_id>
CHEMBL1836517

> <chembl_pref_name>
None

> <s_m_source_file>
sdf/inactives_sanitized.sdf

> <i_m_source_file_index>
62

> <i_lp_mmshare_version>
49012

> <i_m_ct_stereo_status>
1

> <i_f3d_flags>
0

> <s_epik_input>
W0NIMl0xW0NIMl1bQ0gyXVtDSF0xW0NIMl1TYzJbbkhdYyg9TyluYyhuMilTW0NIMl1jM1tjSF1bY0hdW2NIXVtjSF1bY0hdMw==

> <s_epik_cmdline>
J2VwaWtfcHl0aG9uJywgJy1waHQnLCAnMC41JywgJy1waCcsICc3LjUnLCAnLW50JywgJy1tYScsICcyMDAnLCAnLWltYWUnLCAnPGluZmlsZS5tYWU+JywgJy1vbWFlJywgJzxvdXRmaWxlLm1hZT4n

> <r_lp_tautomer_probability>
0.000308339100536342

> <r_epik_Ionization_Penalty>
  0.5176

> <r_epik_Ionization_Penalty_Charging>
  0.5153

> <r_epik_Ionization_Penalty_Neutral>
  0.0023

> <r_epik_State_Penalty>
  0.4340

> <r_epik_Charging_Adjusted_Penalty>
0.949343058899639

> <i_epik_Tot_Q>
0

> <i_epik_Tot_abs_Q>
0

> <s_lp_Force_Field>
OPLS3e

> <r_lp_Energy>
41.436497

> <b_lp_Chiralities_Consistent>
1

> <s_lp_Variant>
sdf/inactives_sanitized.sdf:62-1

$$$$
sdf/inactives_sanitized.sdf:62
                    3D
 Schrodinger Suite 2020-1.
 38 40  0  0  1  0            999 V2000
    0.1694    2.6296    1.0305 C   0  0  0  0  0  0
   -0.1466    1.8685   -0.2701 C   0  0  0  0  0  0
   -0.0142    0.0500   -0.1779 S   0  0  0  0  0  0
    1.7709   -0.2205   -0.1116 C   0  0  0  0  0  0
    2.2664   -1.4472    0.2844 N   0  0  0  0  0  0
    3.6083   -1.7031    0.4273 C   0  0  0  0  0  0
    4.4894   -0.6615    0.0434 N   0  0  0  0  0  0
    3.9702    0.4461   -0.3760 C   0  0  0  0  0  0
    2.6012    0.7495   -0.3567 N   0  0  0  0  0  0
    3.8908   -2.8176    0.8606 O   0  0  0  0  0  0
    5.1471    1.6399   -1.0541 S   0  0  0  0  0  0
    4.0801    2.9654   -1.7176 C   0  0  0  0  0  0
    3.7552    2.7326   -3.1868 C   0  0  0  0  0  0
    4.6355    3.1898   -4.1722 C   0  0  0  0  0  0
    4.3397    2.9899   -5.5182 C   0  0  0  0  0  0
    3.1628    2.3356   -5.8760 C   0  0  0  0  0  0
    2.2790    1.8802   -4.9001 C   0  0  0  0  0  0
    2.5742    2.0812   -3.5545 C   0  0  0  0  0  0
   -0.7886    2.4574    2.2162 C   0  0  0  0  0  0
   -0.5130    3.9364    2.5382 C   0  0  0  0  0  0
   -0.1211    4.1349    1.0633 C   0  0  0  0  0  0
    1.2034    2.4146    1.3096 H   0  0  0  0  0  0
    0.4783    2.2391   -1.0818 H   0  0  0  0  0  0
   -1.1686    2.0918   -0.5782 H   0  0  0  0  0  0
    3.1730    3.1119   -1.1312 H   0  0  0  0  0  0
    4.6236    3.9064   -1.6251 H   0  0  0  0  0  0
    5.5490    3.6973   -3.8971 H   0  0  0  0  0  0
    5.0189    3.3412   -6.2811 H   0  0  0  0  0  0
    2.9331    2.1803   -6.9198 H   0  0  0  0  0  0
    1.3684    1.3744   -5.1857 H   0  0  0  0  0  0
    1.8848    1.7255   -2.8049 H   0  0  0  0  0  0
   -1.8321    2.3010    1.9344 H   0  0  0  0  0  0
   -0.4826    1.7439    2.9820 H   0  0  0  0  0  0
   -1.3744    4.5125    2.8784 H   0  0  0  0  0  0
    0.3158    4.0841    3.2339 H   0  0  0  0  0  0
   -0.9803    4.4428    0.4633 H   0  0  0  0  0  0
    0.7305    4.7932    0.8876 H   0  0  0  0  0  0
    1.6279   -2.1888    0.5314 H   0  0  0  0  0  0
  1  2  1  0  0  0
  1 19  1  0  0  0
  1 21  1  0  0  0
  1 22  1  0  0  0
  2  3  1  0  0  0
  2 23  1  0  0  0
  2 24  1  0  0  0
  3  4  1  0  0  0
  4  9  2  0  0  0
  4  5  1  0  0  0
  5  6  1  0  0  0
  5 38  1  0  0  0
  6  7  1  0  0  0
  6 10  2  0  0  0
  7  8  2  0  0  0
  8 11  1  0  0  0
  8  9  1  0  0  0
 11 12  1  0  0  0
 12 13  1  0  0  0
 12 25  1  0  0  0
 12 26  1  0  0  0
 13 14  2  0  0  0
 13 18  1  0  0  0
 14 15  1  0  0  0
 14 27  1  0  0  0
 15 16  2  0  0  0
 15 28  1  0  0  0
 16 17  1  0  0  0
 16 29  1  0  0  0
 17 18  2  0  0  0
 17 30  1  0  0  0
 18 31  1  0  0  0
 19 20  1  0  0  0
 19 32  1  0  0  0
 19 33  1  0  0  0
 20 21  1  0  0  0
 20 34  1  0  0  0
 20 35  1  0  0  0
 21 36  1  0  0  0
 21 37  1  0  0  0
M  END
> <chembl_id>
CHEMBL1836517

> <chembl_pref_name>
None

> <s_m_source_file>
sdf/inactives_sanitized.sdf

> <i_m_source_file_index>
62

> <i_lp_mmshare_version>
49012

> <i_m_ct_stereo_status>
1

> <i_f3d_flags>
0

> <s_epik_input>
W0NIMl0xW0NIMl1bQ0gyXVtDSF0xW0NIMl1TYzJbbkhdYyg9TyluYyhuMilTW0NIMl1jM1tjSF1bY0hdW2NIXVtjSF1bY0hdMw==

> <s_epik_cmdline>
J2VwaWtfcHl0aG9uJywgJy1waHQnLCAnMC41JywgJy1waCcsICc3LjUnLCAnLW50JywgJy1tYScsICcyMDAnLCAnLWltYWUnLCAnPGluZmlsZS5tYWU+JywgJy1vbWFlJywgJzxvdXRmaWxlLm1hZT4n

> <r_lp_tautomer_probability>
0.986814540016624

> <r_epik_Ionization_Penalty>
  0.5397

> <r_epik_Ionization_Penalty_Charging>
  0.0012

> <r_epik_Ionization_Penalty_Neutral>
  0.5385

> <r_epik_State_Penalty>
  0.5442

> <r_epik_Charging_Adjusted_Penalty>
0.545405912021448

> <i_epik_Tot_Q>
0

> <i_epik_Tot_abs_Q>
0

> <s_lp_Force_Field>
OPLS3e

> <r_lp_Energy>
43.936338

> <b_lp_Chiralities_Consistent>
1

> <s_lp_Variant>
sdf/inactives_sanitized.sdf:62-2

$$$$
sdf/inactives_sanitized.sdf:63
                    3D
 Schrodinger Suite 2020-1.
 38 40  0  0  1  0            999 V2000
   -2.1158    2.4590   -0.4435 C   0  0  0  0  0  0
   -3.3235    1.8432   -0.7866 C   0  0  0  0  0  0
   -4.4183    2.6140   -1.1773 C   0  0  0  0  0  0
   -4.3137    4.0042   -1.2253 C   0  0  0  0  0  0
   -3.1110    4.6285   -0.8808 C   0  0  0  0  0  0
   -2.0149    3.8538   -0.4877 C   0  0  0  0  0  0
   -0.9246    1.6209   -0.0110 C   0  0  0  0  0  0
    0.1466    1.2356   -1.4338 S   0  0  0  0  0  0
    1.4800    0.2897   -0.6642 C   0  0  0  0  0  0
    2.4129   -0.0497   -1.4929 N   0  5  0  0  0  0
    3.4761   -0.7566   -1.0416 C   0  0  0  0  0  0
    3.5062   -1.1096    0.3485 N   0  0  0  0  0  0
    2.5104   -0.7230    1.0898 C   0  0  0  0  0  0
    1.4273    0.0288    0.6109 N   0  0  0  0  0  0
    4.3845   -1.0856   -1.8007 O   0  0  0  0  0  0
    2.4619   -1.1590    2.8422 S   0  0  0  0  0  0
    4.0051   -2.1083    3.0410 C   0  0  0  0  0  0
    4.1582   -2.6045    4.4693 C   0  0  0  0  0  0
    4.8090   -1.8104    5.4180 C   0  0  0  0  0  0
    4.9581   -2.2697    6.7241 C   0  0  0  0  0  0
    4.4597   -3.5223    7.0762 C   0  0  0  0  0  0
    3.8140   -4.3207    6.1343 C   0  0  0  0  0  0
    3.6643   -3.8619    4.8281 C   0  0  0  0  0  0
   -2.9995    6.0787   -0.9322 C   0  0  0  0  0  0
   -2.9108    7.2318   -0.9730 N   0  0  0  0  0  0
   -3.4145    0.7670   -0.7545 H   0  0  0  0  0  0
   -5.3482    2.1338   -1.4438 H   0  0  0  0  0  0
   -5.1717    4.5866   -1.5316 H   0  0  0  0  0  0
   -1.0795    4.3265   -0.2204 H   0  0  0  0  0  0
   -0.3559    2.1624    0.7468 H   0  0  0  0  0  0
   -1.2729    0.6980    0.4558 H   0  0  0  0  0  0
    4.0120   -2.9580    2.3561 H   0  0  0  0  0  0
    4.8611   -1.4854    2.7763 H   0  0  0  0  0  0
    5.1956   -0.8390    5.1452 H   0  0  0  0  0  0
    5.4584   -1.6582    7.4606 H   0  0  0  0  0  0
    4.5757   -3.8785    8.0893 H   0  0  0  0  0  0
    3.4315   -5.2908    6.4161 H   0  0  0  0  0  0
    3.1632   -4.4812    4.0980 H   0  0  0  0  0  0
  1  6  1  0  0  0
  1  2  2  0  0  0
  1  7  1  0  0  0
  2  3  1  0  0  0
  2 26  1  0  0  0
  3  4  2  0  0  0
  3 27  1  0  0  0
  4  5  1  0  0  0
  4 28  1  0  0  0
  5  6  2  0  0  0
  5 24  1  0  0  0
  6 29  1  0  0  0
  7  8  1  0  0  0
  7 30  1  0  0  0
  7 31  1  0  0  0
  8  9  1  0  0  0
  9 14  2  0  0  0
  9 10  1  0  0  0
 10 11  1  0  0  0
 11 15  2  0  0  0
 11 12  1  0  0  0
 12 13  2  0  0  0
 13 14  1  0  0  0
 13 16  1  0  0  0
 16 17  1  0  0  0
 17 18  1  0  0  0
 17 32  1  0  0  0
 17 33  1  0  0  0
 18 19  2  0  0  0
 18 23  1  0  0  0
 19 20  1  0  0  0
 19 34  1  0  0  0
 20 21  2  0  0  0
 20 35  1  0  0  0
 21 22  1  0  0  0
 21 36  1  0  0  0
 22 23  2  0  0  0
 22 37  1  0  0  0
 23 38  1  0  0  0
 24 25  3  0  0  0
M  CHG  1  10  -1
M  END
> <chembl_id>
CHEMBL1836508

> <chembl_pref_name>
None

> <s_m_source_file>
sdf/inactives_sanitized.sdf

> <i_m_source_file_index>
63

> <i_lp_mmshare_version>
49012

> <i_m_ct_stereo_status>
1

> <i_f3d_flags>
0

> <s_epik_input>
TiNDYyhbY0hdMSlbY0hdW2NIXVtjSF1jMVtDSDJdU2MyW25IXWMoPU8pbmMobjIpU1tDSDJdYzNbY0hdW2NIXVtjSF1bY0hdW2NIXTM=

> <s_epik_cmdline>
J2VwaWtfcHl0aG9uJywgJy1waHQnLCAnMC41JywgJy1waCcsICc3LjUnLCAnLW50JywgJy1tYScsICcyMDAnLCAnLWltYWUnLCAnPGluZmlsZS5tYWU+JywgJy1vbWFlJywgJzxvdXRmaWxlLm1hZT4n

> <r_lp_tautomer_probability>
1

> <r_epik_Ionization_Penalty>
  0.3258

> <r_epik_Ionization_Penalty_Charging>
  0.0003

> <r_epik_Ionization_Penalty_Neutral>
  0.3254

> <r_epik_State_Penalty>
 -0.0000

> <r_epik_Charging_Adjusted_Penalty>
0.000330722952361958

> <i_epik_Tot_Q>
-1

> <i_epik_Tot_abs_Q>
1

> <s_lp_Force_Field>
OPLS3e

> <r_lp_Energy>
42.311054

> <b_lp_Chiralities_Consistent>
1

> <s_lp_Variant>
sdf/inactives_sanitized.sdf:63-1

$$$$
sdf/inactives_sanitized.sdf:64
                    3D
 Schrodinger Suite 2020-1.
 34 35  0  0  1  0            999 V2000
   -2.8257    1.9427   -1.3647 C   0  0  0  0  0  0
   -1.3435    1.8657   -0.9610 C   0  0  0  0  0  0
   -0.9548    0.6092    0.3024 S   0  0  0  0  0  0
    0.8269    0.8217    0.4796 C   0  0  0  0  0  0
    1.5135    1.6886   -0.1881 N   0  0  0  0  0  0
    2.9214    1.7817    0.0222 C   0  0  0  0  0  0
    3.5087    0.8935    0.9708 N   0  0  0  0  0  0
    2.7610    0.0537    1.6051 C   0  0  0  0  0  0
    1.3880   -0.0453    1.4106 N   0  0  0  0  0  0
    3.6042    2.5988   -0.5907 O   0  0  0  0  0  0
    3.3829   -1.1023    2.8426 S   0  0  0  0  0  0
    5.0884   -0.5070    3.1139 C   0  0  0  0  0  0
    5.1363    0.7776    3.9320 C   0  0  0  0  0  0
    5.5083    1.9828    3.3289 C   0  0  0  0  0  0
    5.5566    3.1528    4.0819 C   0  0  0  0  0  0
    5.2401    3.1140    5.4381 C   0  0  0  0  0  0
    4.8787    1.9150    6.0489 C   0  0  0  0  0  0
    4.8300    0.7449    5.2957 C   0  0  0  0  0  0
   -3.3438    0.6841   -2.0776 C   0  0  0  0  0  0
   -3.4335    2.1327   -0.4789 H   0  0  0  0  0  0
   -2.9714    2.8039   -2.0181 H   0  0  0  0  0  0
   -1.0300    2.8406   -0.5853 H   0  0  0  0  0  0
   -0.7427    1.6618   -1.8488 H   0  0  0  0  0  0
    5.6249   -1.2812    3.6632 H   0  0  0  0  0  0
    5.6171   -0.4021    2.1653 H   0  0  0  0  0  0
    5.7554    2.0173    2.2778 H   0  0  0  0  0  0
    5.8381    4.0859    3.6162 H   0  0  0  0  0  0
    5.2768    4.0219    6.0219 H   0  0  0  0  0  0
    4.6373    1.8933    7.1014 H   0  0  0  0  0  0
    4.5491   -0.1844    5.7700 H   0  0  0  0  0  0
   -4.3887    0.8032   -2.3650 H   0  0  0  0  0  0
   -3.2781   -0.1955   -1.4366 H   0  0  0  0  0  0
   -2.7735    0.4810   -2.9844 H   0  0  0  0  0  0
    0.8274   -0.7140    1.9175 H   0  0  0  0  0  0
  1  2  1  0  0  0
  1 19  1  0  0  0
  1 20  1  0  0  0
  1 21  1  0  0  0
  2  3  1  0  0  0
  2 22  1  0  0  0
  2 23  1  0  0  0
  3  4  1  0  0  0
  4  5  2  0  0  0
  4  9  1  0  0  0
  5  6  1  0  0  0
  6 10  2  0  0  0
  6  7  1  0  0  0
  7  8  2  0  0  0
  8 11  1  0  0  0
  8  9  1  0  0  0
  9 34  1  0  0  0
 11 12  1  0  0  0
 12 13  1  0  0  0
 12 24  1  0  0  0
 12 25  1  0  0  0
 13 14  2  0  0  0
 13 18  1  0  0  0
 14 15  1  0  0  0
 14 26  1  0  0  0
 15 16  2  0  0  0
 15 27  1  0  0  0
 16 17  1  0  0  0
 16 28  1  0  0  0
 17 18  2  0  0  0
 17 29  1  0  0  0
 18 30  1  0  0  0
 19 31  1  0  0  0
 19 32  1  0  0  0
 19 33  1  0  0  0
M  END
> <chembl_id>
CHEMBL1836512

> <chembl_pref_name>
None

> <s_m_source_file>
sdf/inactives_sanitized.sdf

> <i_m_source_file_index>
64

> <i_lp_mmshare_version>
49012

> <i_m_ct_stereo_status>
1

> <i_f3d_flags>
0

> <s_epik_input>
W0NIM11bQ0gyXVtDSDJdU2MxW25IXWMoPU8pbmMobjEpU1tDSDJdYzJbY0hdW2NIXVtjSF1bY0hdW2NIXTI=

> <s_epik_cmdline>
J2VwaWtfcHl0aG9uJywgJy1waHQnLCAnMC41JywgJy1waCcsICc3LjUnLCAnLW50JywgJy1tYScsICcyMDAnLCAnLWltYWUnLCAnPGluZmlsZS5tYWU+JywgJy1vbWFlJywgJzxvdXRmaWxlLm1hZT4n

> <r_lp_tautomer_probability>
0.000308339100536342

> <r_epik_Ionization_Penalty>
  0.6203

> <r_epik_Ionization_Penalty_Charging>
  0.6184

> <r_epik_Ionization_Penalty_Neutral>
  0.0019

> <r_epik_State_Penalty>
  0.4278

> <r_epik_Charging_Adjusted_Penalty>
1.04614694817148

> <i_epik_Tot_Q>
0

> <i_epik_Tot_abs_Q>
0

> <s_lp_Force_Field>
OPLS3e

> <r_lp_Energy>
32.048067

> <b_lp_Chiralities_Consistent>
1

> <s_lp_Variant>
sdf/inactives_sanitized.sdf:64-1

$$$$
sdf/inactives_sanitized.sdf:64
                    3D
 Schrodinger Suite 2020-1.
 34 35  0  0  1  0            999 V2000
   -1.2303    2.3565    0.4176 C   0  0  0  0  0  0
    0.1936    1.7997    0.2500 C   0  0  0  0  0  0
    0.4469    0.1172    0.9108 S   0  0  0  0  0  0
    2.1934   -0.1695    0.5517 C   0  0  0  0  0  0
    2.7957   -1.3470    0.9494 N   0  0  0  0  0  0
    4.1263   -1.6164    0.7398 C   0  0  0  0  0  0
    4.8512   -0.6540   -0.0064 N   0  0  0  0  0  0
    4.2235    0.4088   -0.3924 C   0  0  0  0  0  0
    2.9099    0.7447   -0.0332 N   0  0  0  0  0  0
    4.5325   -2.6743    1.2142 O   0  0  0  0  0  0
    5.1365    1.4874   -1.5167 S   0  0  0  0  0  0
    3.9275    2.8141   -1.8309 C   0  0  0  0  0  0
    4.5010    3.8603   -2.7717 C   0  0  0  0  0  0
    5.1818    4.9660   -2.2542 C   0  0  0  0  0  0
    5.6992    5.9292   -3.1164 C   0  0  0  0  0  0
    5.5315    5.7853   -4.4922 C   0  0  0  0  0  0
    4.8505    4.6875   -5.0141 C   0  0  0  0  0  0
    4.3324    3.7239   -4.1526 C   0  0  0  0  0  0
   -1.6424    2.5830    1.8804 C   0  0  0  0  0  0
   -1.3072    3.3019   -0.1211 H   0  0  0  0  0  0
   -1.9429    1.6818   -0.0589 H   0  0  0  0  0  0
    0.8978    2.4740    0.7396 H   0  0  0  0  0  0
    0.4457    1.7951   -0.8113 H   0  0  0  0  0  0
    3.0177    2.3950   -2.2639 H   0  0  0  0  0  0
    3.6392    3.2879   -0.8910 H   0  0  0  0  0  0
    5.3133    5.0780   -1.1876 H   0  0  0  0  0  0
    6.2282    6.7835   -2.7202 H   0  0  0  0  0  0
    5.9336    6.5323   -5.1608 H   0  0  0  0  0  0
    4.7252    4.5842   -6.0820 H   0  0  0  0  0  0
    3.8052    2.8722   -4.5578 H   0  0  0  0  0  0
   -2.6456    3.0062    1.9398 H   0  0  0  0  0  0
   -0.9625    3.2738    2.3799 H   0  0  0  0  0  0
   -1.6462    1.6501    2.4449 H   0  0  0  0  0  0
    2.2602   -2.0373    1.4548 H   0  0  0  0  0  0
  1  2  1  0  0  0
  1 19  1  0  0  0
  1 20  1  0  0  0
  1 21  1  0  0  0
  2  3  1  0  0  0
  2 22  1  0  0  0
  2 23  1  0  0  0
  3  4  1  0  0  0
  4  5  1  0  0  0
  4  9  2  0  0  0
  5  6  1  0  0  0
  5 34  1  0  0  0
  6 10  2  0  0  0
  6  7  1  0  0  0
  7  8  2  0  0  0
  8 11  1  0  0  0
  8  9  1  0  0  0
 11 12  1  0  0  0
 12 13  1  0  0  0
 12 24  1  0  0  0
 12 25  1  0  0  0
 13 14  2  0  0  0
 13 18  1  0  0  0
 14 15  1  0  0  0
 14 26  1  0  0  0
 15 16  2  0  0  0
 15 27  1  0  0  0
 16 17  1  0  0  0
 16 28  1  0  0  0
 17 18  2  0  0  0
 17 29  1  0  0  0
 18 30  1  0  0  0
 19 31  1  0  0  0
 19 32  1  0  0  0
 19 33  1  0  0  0
M  END
> <chembl_id>
CHEMBL1836512

> <chembl_pref_name>
None

> <s_m_source_file>
sdf/inactives_sanitized.sdf

> <i_m_source_file_index>
64

> <i_lp_mmshare_version>
49012

> <i_m_ct_stereo_status>
1

> <i_f3d_flags>
0

> <s_epik_input>
W0NIM11bQ0gyXVtDSDJdU2MxW25IXWMoPU8pbmMobjEpU1tDSDJdYzJbY0hdW2NIXVtjSF1bY0hdW2NIXTI=

> <s_epik_cmdline>
J2VwaWtfcHl0aG9uJywgJy1waHQnLCAnMC41JywgJy1waCcsICc3LjUnLCAnLW50JywgJy1tYScsICcyMDAnLCAnLWltYWUnLCAnPGluZmlsZS5tYWU+JywgJy1vbWFlJywgJzxvdXRmaWxlLm1hZT4n

> <r_lp_tautomer_probability>
0.986814540016624

> <r_epik_Ionization_Penalty>
  0.4712

> <r_epik_Ionization_Penalty_Charging>
  0.0017

> <r_epik_Ionization_Penalty_Neutral>
  0.4695

> <r_epik_State_Penalty>
  0.5800

> <r_epik_Charging_Adjusted_Penalty>
0.581705629589816

> <i_epik_Tot_Q>
0

> <i_epik_Tot_abs_Q>
0

> <s_lp_Force_Field>
OPLS3e

> <r_lp_Energy>
33.944391

> <b_lp_Chiralities_Consistent>
1

> <s_lp_Variant>
sdf/inactives_sanitized.sdf:64-2

$$$$
sdf/inactives_sanitized.sdf:65
                    3D
 Schrodinger Suite 2020-1.
 67 68  0  0  1  0            999 V2000
   -0.0476    0.3360    0.7488 C   0  0  0  0  0  0
   -0.7879    1.2709    0.1278 N   0  0  0  0  0  0
    2.3825    0.8740    2.7660 C   0  0  0  0  0  0
    1.4760    0.4037    0.4891 C   0  0  1  0  0  0
    2.2724    0.0250    1.6697 N   0  0  0  0  0  0
   -2.7797    1.5022   -1.1524 C   0  0  0  0  0  0
   -2.2392    1.4399    0.2714 C   0  0  2  0  0  0
   -0.5146   -0.5513    1.4655 O   0  0  0  0  0  0
    1.8989    2.0050    2.8669 O   0  0  0  0  0  0
    3.1097    0.2596    3.7180 O   0  0  0  0  0  0
    1.8569   -0.5162   -0.7030 C   0  0  0  0  0  0
   -3.4631    2.4410   -1.5680 O   0  0  0  0  0  0
   -2.6002    2.6877    1.1207 C   0  0  0  0  0  0
    3.3866    0.9069    4.9536 C   0  0  0  0  0  0
   -2.1252    2.6031    2.5865 C   0  0  0  0  0  0
   -2.4923    3.8359    3.3987 C   0  0  0  0  0  0
    4.1620   -0.0360    5.8544 C   0  0  0  0  0  0
   -2.4868    0.2933   -2.0586 C   0  0  0  0  0  0
   -3.1174    0.4385   -3.3238 O   0  0  0  0  0  0
    3.3291   -0.4190   -1.1724 C   0  0  0  0  0  0
    3.4871   -0.7897    6.8176 C   0  0  0  0  0  0
   -3.7639    3.9417    3.9685 C   0  0  0  0  0  0
    5.5474   -0.1485    5.7153 C   0  0  0  0  0  0
   -1.5591    4.8620    3.5701 C   0  0  0  0  0  0
   -2.8684   -0.6574   -4.1887 C   0  0  0  0  0  0
    3.7076    1.0025   -1.6405 C   0  0  0  0  0  0
    3.6397   -1.4872   -2.2433 C   0  0  0  0  0  0
    6.2585   -1.0159    6.5406 C   0  0  0  0  0  0
    4.1990   -1.6568    7.6425 C   0  0  0  0  0  0
   -4.1018    5.0719    4.7085 C   0  0  0  0  0  0
   -1.8973    5.9915    4.3112 C   0  0  0  0  0  0
    5.5811   -1.7662    7.4999 C   0  0  0  0  0  0
   -3.1669    6.0913    4.8767 C   0  0  0  0  0  0
   -0.3175    1.9870   -0.4071 H   0  0  0  0  0  0
    1.7297    1.4305    0.2147 H   0  0  0  0  0  0
    2.6325   -0.9160    1.7319 H   0  0  0  0  0  0
   -2.6960    0.5730    0.7545 H   0  0  0  0  0  0
    1.6367   -1.5521   -0.4357 H   0  0  0  0  0  0
    1.2159   -0.2944   -1.5588 H   0  0  0  0  0  0
   -2.1775    3.5884    0.6706 H   0  0  0  0  0  0
   -3.6806    2.8462    1.1177 H   0  0  0  0  0  0
    3.9694    1.8148    4.7885 H   0  0  0  0  0  0
    2.4607    1.2094    5.4468 H   0  0  0  0  0  0
   -2.5491    1.7202    3.0677 H   0  0  0  0  0  0
   -1.0450    2.4574    2.6318 H   0  0  0  0  0  0
   -1.4087    0.1995   -2.1968 H   0  0  0  0  0  0
   -2.8442   -0.6109   -1.5641 H   0  0  0  0  0  0
    3.9640   -0.6550   -0.3175 H   0  0  0  0  0  0
    2.4154   -0.7064    6.9267 H   0  0  0  0  0  0
   -4.4895    3.1522    3.8361 H   0  0  0  0  0  0
    6.0712    0.4319    4.9695 H   0  0  0  0  0  0
   -0.5748    4.7858    3.1310 H   0  0  0  0  0  0
   -3.3746   -0.4919   -5.1398 H   0  0  0  0  0  0
   -3.2448   -1.5911   -3.7677 H   0  0  0  0  0  0
   -1.8021   -0.7693   -4.3927 H   0  0  0  0  0  0
    2.8279    1.6078   -1.8608 H   0  0  0  0  0  0
    4.3258    0.9996   -2.5381 H   0  0  0  0  0  0
    4.2755    1.5214   -0.8677 H   0  0  0  0  0  0
    3.8681   -1.0542   -3.2171 H   0  0  0  0  0  0
    2.8039   -2.1710   -2.3945 H   0  0  0  0  0  0
    4.4976   -2.0919   -1.9485 H   0  0  0  0  0  0
    7.3298   -1.1070    6.4373 H   0  0  0  0  0  0
    3.6821   -2.2417    8.3892 H   0  0  0  0  0  0
   -5.0839    5.1583    5.1494 H   0  0  0  0  0  0
   -1.1787    6.7864    4.4465 H   0  0  0  0  0  0
    6.1325   -2.4394    8.1397 H   0  0  0  0  0  0
   -3.4291    6.9679    5.4509 H   0  0  0  0  0  0
  1  2  1  0  0  0
  1  4  1  0  0  0
  1  8  2  0  0  0
  2  7  1  0  0  0
  2 34  1  0  0  0
  3  5  1  0  0  0
  3  9  2  0  0  0
  3 10  1  0  0  0
  4  5  1  0  0  0
  4 11  1  0  0  0
  4 35  1  0  0  0
  5 36  1  0  0  0
  6  7  1  0  0  0
  6 12  2  0  0  0
  6 18  1  0  0  0
  7 13  1  0  0  0
  7 37  1  0  0  0
 10 14  1  0  0  0
 11 20  1  0  0  0
 11 38  1  0  0  0
 11 39  1  0  0  0
 13 15  1  0  0  0
 13 40  1  0  0  0
 13 41  1  0  0  0
 14 17  1  0  0  0
 14 42  1  0  0  0
 14 43  1  0  0  0
 15 16  1  0  0  0
 15 44  1  0  0  0
 15 45  1  0  0  0
 16 22  2  0  0  0
 16 24  1  0  0  0
 17 21  2  0  0  0
 17 23  1  0  0  0
 18 19  1  0  0  0
 18 46  1  0  0  0
 18 47  1  0  0  0
 19 25  1  0  0  0
 20 26  1  0  0  0
 20 27  1  0  0  0
 20 48  1  0  0  0
 21 29  1  0  0  0
 21 49  1  0  0  0
 22 30  1  0  0  0
 22 50  1  0  0  0
 23 28  2  0  0  0
 23 51  1  0  0  0
 24 31  2  0  0  0
 24 52  1  0  0  0
 25 53  1  0  0  0
 25 54  1  0  0  0
 25 55  1  0  0  0
 26 56  1  0  0  0
 26 57  1  0  0  0
 26 58  1  0  0  0
 27 59  1  0  0  0
 27 60  1  0  0  0
 27 61  1  0  0  0
 28 32  1  0  0  0
 28 62  1  0  0  0
 29 32  2  0  0  0
 29 63  1  0  0  0
 30 33  2  0  0  0
 30 64  1  0  0  0
 31 33  1  0  0  0
 31 65  1  0  0  0
 32 66  1  0  0  0
 33 67  1  0  0  0
M  END
> <chembl_id>
CHEMBL100095

> <chembl_pref_name>
None

> <i_m_ct_stereo_status>
1

> <s_m_source_file>
sdf/inactives_sanitized.sdf

> <i_m_source_file_index>
65

> <i_lp_mmshare_version>
49012

> <i_f3d_flags>
0

> <s_epik_input>
W2NIXTFbY0hdW2NIXVtjSF1bY0hdYzFbQ0gyXVtDSDJdW0NAQEhdKEMoPU8pW0NIMl1PW0NIM10pW05IXUMoPU8pW0NASF0oW0NIMl1bQ0hdKFtDSDNdKVtDSDNdKVtOSF1DKD1PKU9bQ0gyXWMyW2NIXVtjSF1bY0hdW2NIXVtjSF0y

> <s_epik_cmdline>
J2VwaWtfcHl0aG9uJywgJy1waHQnLCAnMC41JywgJy1waCcsICc3LjUnLCAnLW50JywgJy1tYScsICcyMDAnLCAnLWltYWUnLCAnPGluZmlsZS5tYWU+JywgJy1vbWFlJywgJzxvdXRmaWxlLm1hZT4n

> <r_lp_tautomer_probability>
1

> <r_epik_Ionization_Penalty>
  0.0000

> <r_epik_Ionization_Penalty_Charging>
  0.0000

> <r_epik_Ionization_Penalty_Neutral>
  0.0000

> <r_epik_State_Penalty>
 -0.0000

> <r_epik_Charging_Adjusted_Penalty>
0

> <i_epik_Tot_Q>
0

> <i_epik_Tot_abs_Q>
0

> <s_epik_Chemistry_Notes>
This compound has an ester and may undergo hydrolysis at high or low pH.

> <s_lp_Force_Field>
OPLS3e

> <r_lp_Energy>
38.828907

> <b_lp_Chiralities_Consistent>
1

> <s_lp_Variant>
sdf/inactives_sanitized.sdf:65-1

$$$$
sdf/inactives_sanitized.sdf:66
                    3D
 Schrodinger Suite 2020-1.
 77 79  0  0  1  0            999 V2000
   -0.3253    0.9809    0.3020 C   0  0  0  0  0  0
    0.4241    0.0061   -0.2401 N   0  0  0  0  0  0
   -2.8714    0.6746    2.2243 C   0  0  0  0  0  0
   -1.8368    0.9308   -0.0312 C   0  0  1  0  0  0
   -2.6742    1.4293    1.0731 N   0  0  0  0  0  0
    2.3146   -0.8416   -1.3329 C   0  0  0  0  0  0
    1.8690   -0.1445   -0.0552 C   0  0  2  0  0  0
    0.1288    1.8925    0.9965 O   0  0  0  0  0  0
   -2.4404   -0.4621    2.4365 O   0  0  0  0  0  0
   -3.6163    1.3886    3.0891 O   0  0  0  0  0  0
   -2.1303    1.7382   -1.3266 C   0  0  0  0  0  0
    2.4757   -2.0603   -1.4140 O   0  0  0  0  0  0
    2.2073   -0.9296    1.2403 C   0  0  0  0  0  0
    1.6011    1.0223   -2.7118 O   0  0  0  0  0  0
   -3.9625    0.8562    4.3632 C   0  0  0  0  0  0
    3.7135   -1.0820    1.5386 C   0  0  0  0  0  0
    2.6145    0.0413   -2.5507 C   0  0  0  0  0  0
    3.9775   -1.7789    2.8649 C   0  0  0  0  0  0
   -4.8189    1.8503    5.1301 C   0  0  0  0  0  0
    0.8087    3.0284   -3.7652 C   0  0  0  0  0  0
   -3.5176    1.4907   -1.9722 C   0  0  0  0  0  0
    1.8361    1.9069   -3.7965 C   0  0  0  0  0  0
   -4.4354    2.2502    6.4127 C   0  0  0  0  0  0
    4.1324   -1.0248    4.0314 C   0  0  0  0  0  0
   -5.9939    2.3510    4.5612 C   0  0  0  0  0  0
    4.0528   -3.1735    2.9159 C   0  0  0  0  0  0
    0.0949    3.3574   -4.9208 C   0  0  0  0  0  0
    0.5877    3.7381   -2.5807 C   0  0  0  0  0  0
   -3.5358    1.9448   -3.4490 C   0  0  0  0  0  0
   -4.6811    2.1184   -1.1748 C   0  0  0  0  0  0
   -0.8425    4.3868   -4.8899 C   0  0  0  0  0  0
    4.3642   -1.6646    5.2464 C   0  0  0  0  0  0
    4.2840   -3.8127    4.1313 C   0  0  0  0  0  0
   -6.7790    3.2556    5.2715 C   0  0  0  0  0  0
   -5.2215    3.1541    7.1227 C   0  0  0  0  0  0
   -0.3496    4.7671   -2.5504 C   0  0  0  0  0  0
   -6.3892    3.6531    6.5488 C   0  0  0  0  0  0
    4.4387   -3.0554    5.2907 C   0  0  0  0  0  0
   -1.0620    5.0853   -3.7044 C   0  0  0  0  0  0
   -0.0214   -0.6992   -0.8092 H   0  0  0  0  0  0
   -2.1035   -0.1099   -0.2348 H   0  0  0  0  0  0
   -3.0002    2.3841    1.0426 H   0  0  0  0  0  0
    2.3481    0.8365   -0.0062 H   0  0  0  0  0  0
   -1.9800    2.8060   -1.1588 H   0  0  0  0  0  0
   -1.3777    1.4576   -2.0666 H   0  0  0  0  0  0
    1.7417   -0.4225    2.0875 H   0  0  0  0  0  0
    1.7288   -1.9112    1.2344 H   0  0  0  0  0  0
   -4.5171   -0.0768    4.2506 H   0  0  0  0  0  0
   -3.0550    0.6320    4.9271 H   0  0  0  0  0  0
    4.2087   -1.6401    0.7426 H   0  0  0  0  0  0
    4.1973   -0.1038    1.5409 H   0  0  0  0  0  0
    2.6833   -0.5788   -3.4459 H   0  0  0  0  0  0
    3.5809    0.5236   -2.3984 H   0  0  0  0  0  0
   -3.6770    0.4115   -1.9859 H   0  0  0  0  0  0
    1.7785    1.3557   -4.7373 H   0  0  0  0  0  0
    2.8305    2.3529   -3.7317 H   0  0  0  0  0  0
   -3.5310    1.8644    6.8603 H   0  0  0  0  0  0
    4.0707    0.0534    3.9985 H   0  0  0  0  0  0
   -6.2977    2.0413    3.5716 H   0  0  0  0  0  0
    3.9287   -3.7609    2.0176 H   0  0  0  0  0  0
    0.2610    2.8175   -5.8417 H   0  0  0  0  0  0
    1.1368    3.4901   -1.6837 H   0  0  0  0  0  0
   -2.5438    2.2092   -3.8145 H   0  0  0  0  0  0
   -4.1678    2.8179   -3.6120 H   0  0  0  0  0  0
   -3.9089    1.1482   -4.0934 H   0  0  0  0  0  0
   -4.3397    2.9161   -0.5148 H   0  0  0  0  0  0
   -5.1724    1.3668   -0.5563 H   0  0  0  0  0  0
   -5.4492    2.5455   -1.8195 H   0  0  0  0  0  0
   -1.3988    4.6402   -5.7801 H   0  0  0  0  0  0
    4.4836   -1.0856    6.1503 H   0  0  0  0  0  0
    4.3413   -4.8903    4.1750 H   0  0  0  0  0  0
   -7.6861    3.6466    4.8346 H   0  0  0  0  0  0
   -4.9273    3.4668    8.1138 H   0  0  0  0  0  0
   -0.5254    5.3131   -1.6353 H   0  0  0  0  0  0
   -6.9986    4.3541    7.1000 H   0  0  0  0  0  0
    4.6168   -3.5514    6.2334 H   0  0  0  0  0  0
   -1.7910    5.8818   -3.6801 H   0  0  0  0  0  0
  1  2  1  0  0  0
  1  4  1  0  0  0
  1  8  2  0  0  0
  2  7  1  0  0  0
  2 40  1  0  0  0
  3  5  1  0  0  0
  3  9  2  0  0  0
  3 10  1  0  0  0
  4  5  1  0  0  0
  4 11  1  0  0  0
  4 41  1  0  0  0
  5 42  1  0  0  0
  6  7  1  0  0  0
  6 12  2  0  0  0
  6 17  1  0  0  0
  7 13  1  0  0  0
  7 43  1  0  0  0
 10 15  1  0  0  0
 11 21  1  0  0  0
 11 44  1  0  0  0
 11 45  1  0  0  0
 13 16  1  0  0  0
 13 46  1  0  0  0
 13 47  1  0  0  0
 14 17  1  0  0  0
 14 22  1  0  0  0
 15 19  1  0  0  0
 15 48  1  0  0  0
 15 49  1  0  0  0
 16 18  1  0  0  0
 16 50  1  0  0  0
 16 51  1  0  0  0
 17 52  1  0  0  0
 17 53  1  0  0  0
 18 24  2  0  0  0
 18 26  1  0  0  0
 19 23  2  0  0  0
 19 25  1  0  0  0
 20 22  1  0  0  0
 20 27  2  0  0  0
 20 28  1  0  0  0
 21 29  1  0  0  0
 21 30  1  0  0  0
 21 54  1  0  0  0
 22 55  1  0  0  0
 22 56  1  0  0  0
 23 35  1  0  0  0
 23 57  1  0  0  0
 24 32  1  0  0  0
 24 58  1  0  0  0
 25 34  2  0  0  0
 25 59  1  0  0  0
 26 33  2  0  0  0
 26 60  1  0  0  0
 27 31  1  0  0  0
 27 61  1  0  0  0
 28 36  2  0  0  0
 28 62  1  0  0  0
 29 63  1  0  0  0
 29 64  1  0  0  0
 29 65  1  0  0  0
 30 66  1  0  0  0
 30 67  1  0  0  0
 30 68  1  0  0  0
 31 39  2  0  0  0
 31 69  1  0  0  0
 32 38  2  0  0  0
 32 70  1  0  0  0
 33 38  1  0  0  0
 33 71  1  0  0  0
 34 37  1  0  0  0
 34 72  1  0  0  0
 35 37  2  0  0  0
 35 73  1  0  0  0
 36 39  1  0  0  0
 36 74  1  0  0  0
 37 75  1  0  0  0
 38 76  1  0  0  0
 39 77  1  0  0  0
M  END
> <chembl_id>
CHEMBL100428

> <chembl_pref_name>
None

> <i_m_ct_stereo_status>
1

> <s_m_source_file>
sdf/inactives_sanitized.sdf

> <i_m_source_file_index>
66

> <i_lp_mmshare_version>
49012

> <i_f3d_flags>
0

> <s_epik_input>
W2NIXTFbY0hdW2NIXVtjSF1bY0hdYzFbQ0gyXU9DKD1PKVtOSF1bQ0BASF0oW0NIMl1bQ0hdKFtDSDNdKVtDSDNdKUMoPU8pW05IXVtDQEBIXShbQ0gyXVtDSDJdYzJbY0hdW2NIXVtjSF1bY0hdW2NIXTIpQyg9TylbQ0gyXU9bQ0gyXWMzW2NIXVtjSF1bY0hdW2NIXVtjSF0z

> <s_epik_cmdline>
J2VwaWtfcHl0aG9uJywgJy1waHQnLCAnMC41JywgJy1waCcsICc3LjUnLCAnLW50JywgJy1tYScsICcyMDAnLCAnLWltYWUnLCAnPGluZmlsZS5tYWU+JywgJy1vbWFlJywgJzxvdXRmaWxlLm1hZT4n

> <r_lp_tautomer_probability>
1

> <r_epik_Ionization_Penalty>
  0.0000

> <r_epik_Ionization_Penalty_Charging>
  0.0000

> <r_epik_Ionization_Penalty_Neutral>
  0.0000

> <r_epik_State_Penalty>
 -0.0000

> <r_epik_Charging_Adjusted_Penalty>
0

> <i_epik_Tot_Q>
0

> <i_epik_Tot_abs_Q>
0

> <s_epik_Chemistry_Notes>
This compound has an ester and may undergo hydrolysis at high or low pH.

> <s_lp_Force_Field>
OPLS3e

> <r_lp_Energy>
48.938385

> <b_lp_Chiralities_Consistent>
1

> <s_lp_Variant>
sdf/inactives_sanitized.sdf:66-1

$$$$
sdf/inactives_sanitized.sdf:67
                    3D
 Schrodinger Suite 2020-1.
 82 84  0  0  1  0            999 V2000
   -8.0043   -2.7373    6.1032 C   0  0  0  0  0  0
   -7.0929   -3.7916    6.0888 C   0  0  0  0  0  0
   -5.8483   -3.6195    5.4881 C   0  0  0  0  0  0
   -5.5217   -2.3937    4.9029 C   0  0  0  0  0  0
   -6.4379   -1.3384    4.9237 C   0  0  0  0  0  0
   -7.6823   -1.5115    5.5241 C   0  0  0  0  0  0
   -4.1659   -2.2062    4.2454 C   0  0  0  0  0  0
   -4.3362   -2.0147    2.8459 O   0  0  0  0  0  0
   -3.2734   -1.8386    2.0389 C   0  0  0  0  0  0
   -2.0987   -1.8327    2.4156 O   0  0  0  0  0  0
   -2.8444   -1.6399   -0.4390 C   0  0  1  0  0  0
   -3.6735   -1.5250   -1.7413 C   0  0  0  0  0  0
   -2.8625   -1.5351   -3.0634 C   0  0  0  0  0  0
   -3.7846   -1.3075   -4.2750 C   0  0  0  0  0  0
   -2.0279   -2.8193   -3.2428 C   0  0  0  0  0  0
   -1.7697   -0.5625   -0.3321 C   0  0  0  0  0  0
   -2.0844    1.1455   -0.3525 S   0  0  0  0  0  0
   -0.5006   -0.8579   -0.1946 N   0  0  0  0  0  0
    0.2812    0.1961   -0.0201 C   0  0  0  0  0  0
   -3.7265   -1.6739    0.7345 N   0  0  0  0  0  0
   -0.3849    1.4189   -0.1286 C   0  0  0  0  0  0
    1.7239    0.0606    0.1676 C   0  0  0  0  0  0
    2.4581    0.9746   -0.2075 O   0  0  0  0  0  0
   -0.1419  -11.5277   -2.3821 C   0  0  0  0  0  0
   -1.2913  -11.2711   -1.6369 C   0  0  0  0  0  0
   -1.6316   -9.9573   -1.3242 C   0  0  0  0  0  0
   -0.8201   -8.9068   -1.7588 C   0  0  0  0  0  0
    0.3307   -9.1689   -2.5063 C   0  0  0  0  0  0
    0.6705  -10.4828   -2.8182 C   0  0  0  0  0  0
   -1.1863   -7.4747   -1.4159 C   0  0  0  0  0  0
   -0.3735   -7.0239   -0.3396 O   0  0  0  0  0  0
   -0.4607   -5.7571    0.1079 C   0  0  0  0  0  0
   -1.2373   -4.9073   -0.3327 O   0  0  0  0  0  0
    0.6685   -4.2698    1.7761 C   0  0  1  0  0  0
    1.3517   -4.4997    3.1543 C   0  0  0  0  0  0
    0.5100   -5.3013    4.1776 C   0  0  0  0  0  0
   -0.8224   -4.5996    4.5204 C   0  0  0  0  0  0
    1.3372   -5.6284    5.4394 C   0  0  0  0  0  0
    1.4624   -3.2565    0.9081 C   0  0  0  0  0  0
    1.9681   -3.6170   -0.1604 O   0  0  0  0  0  0
    1.5263   -2.0017    1.4040 N   0  0  0  0  0  0
    2.2809   -1.0475    0.7249 N   0  0  0  0  0  0
    0.4660   -5.5804    1.1292 N   0  0  0  0  0  0
   -8.9701   -2.8715    6.5676 H   0  0  0  0  0  0
   -7.3508   -4.7384    6.5402 H   0  0  0  0  0  0
   -5.1435   -4.4384    5.4769 H   0  0  0  0  0  0
   -6.1882   -0.3887    4.4731 H   0  0  0  0  0  0
   -8.3946   -0.6997    5.5399 H   0  0  0  0  0  0
   -3.6677   -1.3443    4.6921 H   0  0  0  0  0  0
   -3.5353   -3.0771    4.4333 H   0  0  0  0  0  0
   -2.3758   -2.6236   -0.4558 H   0  0  0  0  0  0
   -4.3935   -2.3452   -1.7714 H   0  0  0  0  0  0
   -4.2776   -0.6167   -1.6968 H   0  0  0  0  0  0
   -2.1648   -0.6966   -3.0409 H   0  0  0  0  0  0
   -4.5178   -2.1089   -4.3751 H   0  0  0  0  0  0
   -3.2142   -1.2626   -5.2035 H   0  0  0  0  0  0
   -4.3304   -0.3676   -4.1857 H   0  0  0  0  0  0
   -2.6555   -3.7110   -3.2175 H   0  0  0  0  0  0
   -1.2733   -2.9220   -2.4628 H   0  0  0  0  0  0
   -1.4966   -2.8155   -4.1951 H   0  0  0  0  0  0
   -4.7027   -1.8699    0.5689 H   0  0  0  0  0  0
    0.0185    2.4193   -0.0669 H   0  0  0  0  0  0
    0.1224  -12.5468   -2.6237 H   0  0  0  0  0  0
   -1.9148  -12.0873   -1.3025 H   0  0  0  0  0  0
   -2.5215   -9.7587   -0.7446 H   0  0  0  0  0  0
    0.9611   -8.3576   -2.8413 H   0  0  0  0  0  0
    1.5599  -10.6909   -3.3946 H   0  0  0  0  0  0
   -1.0439   -6.8464   -2.2971 H   0  0  0  0  0  0
   -2.2425   -7.4130   -1.1479 H   0  0  0  0  0  0
   -0.3093   -3.8192    1.9560 H   0  0  0  0  0  0
    2.3061   -5.0059    2.9953 H   0  0  0  0  0  0
    1.6058   -3.5436    3.6157 H   0  0  0  0  0  0
    0.2604   -6.2607    3.7226 H   0  0  0  0  0  0
   -0.8010   -3.5394    4.2672 H   0  0  0  0  0  0
   -1.0763   -4.6701    5.5782 H   0  0  0  0  0  0
   -1.6468   -5.0494    3.9662 H   0  0  0  0  0  0
    0.9586   -5.1294    6.3316 H   0  0  0  0  0  0
    2.3809   -5.3304    5.3338 H   0  0  0  0  0  0
    1.3298   -6.7003    5.6395 H   0  0  0  0  0  0
    1.2618   -1.7316    2.3402 H   0  0  0  0  0  0
    3.2603   -1.0910    0.9664 H   0  0  0  0  0  0
    1.0974   -6.3336    1.3585 H   0  0  0  0  0  0
  1  2  2  0  0  0
  1  6  1  0  0  0
  1 44  1  0  0  0
  2  3  1  0  0  0
  2 45  1  0  0  0
  3  4  2  0  0  0
  3 46  1  0  0  0
  4  5  1  0  0  0
  4  7  1  0  0  0
  5  6  2  0  0  0
  5 47  1  0  0  0
  6 48  1  0  0  0
  7  8  1  0  0  0
  7 49  1  0  0  0
  7 50  1  0  0  0
  8  9  1  0  0  0
  9 10  2  0  0  0
  9 20  1  0  0  0
 11 12  1  0  0  0
 11 16  1  0  0  0
 11 20  1  0  0  0
 11 51  1  0  0  0
 12 13  1  0  0  0
 12 52  1  0  0  0
 12 53  1  0  0  0
 13 14  1  0  0  0
 13 15  1  0  0  0
 13 54  1  0  0  0
 14 55  1  0  0  0
 14 56  1  0  0  0
 14 57  1  0  0  0
 15 58  1  0  0  0
 15 59  1  0  0  0
 15 60  1  0  0  0
 16 17  1  0  0  0
 16 18  2  0  0  0
 17 21  1  0  0  0
 18 19  1  0  0  0
 19 21  2  0  0  0
 19 22  1  0  0  0
 20 61  1  0  0  0
 21 62  1  0  0  0
 22 23  2  0  0  0
 22 42  1  0  0  0
 24 25  2  0  0  0
 24 29  1  0  0  0
 24 63  1  0  0  0
 25 26  1  0  0  0
 25 64  1  0  0  0
 26 27  2  0  0  0
 26 65  1  0  0  0
 27 28  1  0  0  0
 27 30  1  0  0  0
 28 29  2  0  0  0
 28 66  1  0  0  0
 29 67  1  0  0  0
 30 31  1  0  0  0
 30 68  1  0  0  0
 30 69  1  0  0  0
 31 32  1  0  0  0
 32 33  2  0  0  0
 32 43  1  0  0  0
 34 35  1  0  0  0
 34 39  1  0  0  0
 34 43  1  0  0  0
 34 70  1  0  0  0
 35 36  1  0  0  0
 35 71  1  0  0  0
 35 72  1  0  0  0
 36 37  1  0  0  0
 36 38  1  0  0  0
 36 73  1  0  0  0
 37 74  1  0  0  0
 37 75  1  0  0  0
 37 76  1  0  0  0
 38 77  1  0  0  0
 38 78  1  0  0  0
 38 79  1  0  0  0
 39 40  2  0  0  0
 39 41  1  0  0  0
 41 42  1  0  0  0
 41 80  1  0  0  0
 42 81  1  0  0  0
 43 82  1  0  0  0
M  END
> <chembl_id>
CHEMBL57836

> <chembl_pref_name>
None

> <i_m_ct_stereo_status>
1

> <s_m_source_file>
sdf/inactives_sanitized.sdf

> <i_m_source_file_index>
67

> <i_lp_mmshare_version>
49012

> <i_f3d_flags>
0

> <s_epik_input>
W2NIXTFbY0hdW2NIXVtjSF1bY0hdYzFbQ0gyXU9DKD1PKVtOSF1bQ0BASF0oW0NIMl1bQ0hdKFtDSDNdKVtDSDNdKWMyc1tjSF1jKG4yKUMoPU8pW05IXVtOSF1DKD1PKVtDQEhdKFtDSDJdW0NIXShbQ0gzXSlbQ0gzXSlbTkhdQyg9TylPW0NIMl1jM1tjSF1bY0hdW2NIXVtjSF1bY0hdMw==

> <s_epik_cmdline>
J2VwaWtfcHl0aG9uJywgJy1waHQnLCAnMC41JywgJy1waCcsICc3LjUnLCAnLW50JywgJy1tYScsICcyMDAnLCAnLWltYWUnLCAnPGluZmlsZS5tYWU+JywgJy1vbWFlJywgJzxvdXRmaWxlLm1hZT4n

> <r_lp_tautomer_probability>
1

> <r_epik_Ionization_Penalty>
  0.0025

> <r_epik_Ionization_Penalty_Charging>
  0.0000

> <r_epik_Ionization_Penalty_Neutral>
  0.0025

> <r_epik_State_Penalty>
 -0.0000

> <r_epik_Charging_Adjusted_Penalty>
0

> <i_epik_Tot_Q>
0

> <i_epik_Tot_abs_Q>
0

> <s_epik_Chemistry_Notes>
This compound has an ester and may undergo hydrolysis at high or low pH.

> <s_lp_Force_Field>
OPLS3e

> <r_lp_Energy>
43.991444

> <b_lp_Chiralities_Consistent>
1

> <s_lp_Variant>
sdf/inactives_sanitized.sdf:67-1

$$$$
sdf/inactives_sanitized.sdf:68
                    3D
 Schrodinger Suite 2020-1.
 68 69  0  0  1  0            999 V2000
   -2.9649    1.3247    0.2226 C   0  0  0  0  0  0
    0.2199   -0.0360    0.4531 C   0  0  0  0  0  0
   -3.0657    0.5199   -1.1454 C   0  0  0  0  0  0
   -0.6658    0.9435    0.7073 N   0  0  0  0  0  0
    1.4036   -0.5845   -2.4511 C   0  0  0  0  0  0
    1.5626    0.4140   -0.1691 C   0  0  2  0  0  0
   -2.0097    0.7533    1.2713 C   0  0  1  0  0  0
    2.0369   -0.5103   -1.2144 N   0  0  0  0  0  0
   -3.6740    1.2276   -2.1156 N   0  0  0  0  0  0
   -3.6537    2.3341    0.4027 O   0  0  0  0  0  0
    0.0224   -1.2280    0.6961 O   0  0  0  0  0  0
    0.4556    0.1088   -2.8308 O   0  0  0  0  0  0
   -2.6122   -0.6198   -1.2587 O   0  0  0  0  0  0
    1.9912   -1.5511   -3.1809 O   0  0  0  0  0  0
    2.6470    0.5405    0.9351 C   0  0  0  0  0  0
   -5.4790   -0.1588   -4.9733 O   0  0  0  0  0  0
   -3.8877    0.7568   -3.4833 C   0  0  0  0  0  0
    1.5185   -1.8686   -4.4841 C   0  0  0  0  0  0
   -5.0577   -0.2463   -3.6124 C   0  0  2  0  0  0
    2.3587   -2.9893   -5.0679 C   0  0  0  0  0  0
   -2.1611    1.4356    2.6562 C   0  0  0  0  0  0
    4.0009    1.1314    0.4721 C   0  0  0  0  0  0
   -6.2217   -1.3220   -5.3309 C   0  0  0  0  0  0
    3.3137   -2.7074   -6.0476 C   0  0  0  0  0  0
    2.1735   -4.3004   -4.6222 C   0  0  0  0  0  0
   -4.6967   -1.7325   -3.5274 C   0  0  0  0  0  0
    5.0528    1.0520    1.5993 C   0  0  0  0  0  0
    3.8597    2.5608   -0.0936 C   0  0  0  0  0  0
   -1.2333    0.8509    3.7343 C   0  0  0  0  0  0
   -5.6834   -2.4348   -4.4351 C   0  0  0  0  0  0
    4.0839   -3.7377   -6.5815 C   0  0  0  0  0  0
    2.9443   -5.3300   -5.1564 C   0  0  0  0  0  0
    3.8956   -5.0438   -6.1336 C   0  0  0  0  0  0
   -0.3963    1.9017    0.5378 H   0  0  0  0  0  0
    1.4213    1.4001   -0.6180 H   0  0  0  0  0  0
   -2.2430   -0.3056    1.4092 H   0  0  0  0  0  0
    2.7378   -1.1961   -0.9743 H   0  0  0  0  0  0
   -4.0025    2.1585   -1.9019 H   0  0  0  0  0  0
    2.2701    1.1603    1.7516 H   0  0  0  0  0  0
    2.8214   -0.4441    1.3750 H   0  0  0  0  0  0
   -4.0890    1.6410   -4.0899 H   0  0  0  0  0  0
   -2.9610    0.3345   -3.8782 H   0  0  0  0  0  0
    0.4740   -2.1834   -4.4475 H   0  0  0  0  0  0
    1.5647   -0.9913   -5.1320 H   0  0  0  0  0  0
   -5.9170    0.0839   -3.0244 H   0  0  0  0  0  0
   -1.9580    2.5053    2.5752 H   0  0  0  0  0  0
   -3.1918    1.3421    3.0031 H   0  0  0  0  0  0
    4.3761    0.5019   -0.3358 H   0  0  0  0  0  0
   -7.2842   -1.1420   -5.1598 H   0  0  0  0  0  0
   -6.0931   -1.5385   -6.3920 H   0  0  0  0  0  0
    3.4616   -1.6948   -6.3939 H   0  0  0  0  0  0
    1.4366   -4.5207   -3.8632 H   0  0  0  0  0  0
   -3.6767   -1.8939   -3.8811 H   0  0  0  0  0  0
   -4.7026   -2.0951   -2.4990 H   0  0  0  0  0  0
    5.3490    2.0338    1.9686 H   0  0  0  0  0  0
    5.9559    0.5502    1.2507 H   0  0  0  0  0  0
    4.6887    0.4914    2.4609 H   0  0  0  0  0  0
    2.9168    3.0244    0.1976 H   0  0  0  0  0  0
    3.8931    2.5464   -1.1835 H   0  0  0  0  0  0
    4.6570    3.2258    0.2379 H   0  0  0  0  0  0
   -1.4030    1.3332    4.6972 H   0  0  0  0  0  0
   -0.1827    0.9917    3.4778 H   0  0  0  0  0  0
   -1.4046   -0.2183    3.8647 H   0  0  0  0  0  0
   -5.2017   -3.2261   -5.0109 H   0  0  0  0  0  0
   -6.4907   -2.8876   -3.8579 H   0  0  0  0  0  0
    4.8241   -3.5251   -7.3388 H   0  0  0  0  0  0
    2.8059   -6.3449   -4.8139 H   0  0  0  0  0  0
    4.4935   -5.8424   -6.5477 H   0  0  0  0  0  0
  1  3  1  0  0  0
  1  7  1  0  0  0
  1 10  2  0  0  0
  2  4  1  0  0  0
  2  6  1  0  0  0
  2 11  2  0  0  0
  3  9  1  0  0  0
  3 13  2  0  0  0
  4  7  1  0  0  0
  4 34  1  0  0  0
  5  8  1  0  0  0
  5 12  2  0  0  0
  5 14  1  0  0  0
  6  8  1  0  0  0
  6 15  1  0  0  0
  6 35  1  0  0  0
  7 21  1  0  0  0
  7 36  1  0  0  0
  8 37  1  0  0  0
  9 17  1  0  0  0
  9 38  1  0  0  0
 14 18  1  0  0  0
 15 22  1  0  0  0
 15 39  1  0  0  0
 15 40  1  0  0  0
 16 19  1  0  0  0
 16 23  1  0  0  0
 17 19  1  0  0  0
 17 41  1  0  0  0
 17 42  1  0  0  0
 18 20  1  0  0  0
 18 43  1  0  0  0
 18 44  1  0  0  0
 19 26  1  0  0  0
 19 45  1  0  0  0
 20 24  2  0  0  0
 20 25  1  0  0  0
 21 29  1  0  0  0
 21 46  1  0  0  0
 21 47  1  0  0  0
 22 27  1  0  0  0
 22 28  1  0  0  0
 22 48  1  0  0  0
 23 30  1  0  0  0
 23 49  1  0  0  0
 23 50  1  0  0  0
 24 31  1  0  0  0
 24 51  1  0  0  0
 25 32  2  0  0  0
 25 52  1  0  0  0
 26 30  1  0  0  0
 26 53  1  0  0  0
 26 54  1  0  0  0
 27 55  1  0  0  0
 27 56  1  0  0  0
 27 57  1  0  0  0
 28 58  1  0  0  0
 28 59  1  0  0  0
 28 60  1  0  0  0
 29 61  1  0  0  0
 29 62  1  0  0  0
 29 63  1  0  0  0
 30 64  1  0  0  0
 30 65  1  0  0  0
 31 33  2  0  0  0
 31 66  1  0  0  0
 32 33  1  0  0  0
 32 67  1  0  0  0
 33 68  1  0  0  0
M  END
> <chembl_id>
CHEMBL131319

> <chembl_pref_name>
None

> <s_m_source_file>
sdf/inactives_sanitized.sdf

> <i_m_source_file_index>
68

> <i_lp_mmshare_version>
49012

> <i_m_ct_stereo_status>
1

> <i_f3d_flags>
0

> <s_epik_input>
W0NIMl0xW0NIMl1bQ0gyXU9bQ0BASF0xW0NIMl1bTkhdQyg9TylDKD1PKVtDQEhdKFtDSDJdW0NIM10pW05IXUMoPU8pW0NAQEhdKFtDSDJdW0NIXShbQ0gzXSlbQ0gzXSlbTkhdQyg9TylPW0NIMl1jMltjSF1bY0hdW2NIXVtjSF1bY0hdMg==

> <s_epik_cmdline>
J2VwaWtfcHl0aG9uJywgJy1waHQnLCAnMC41JywgJy1waCcsICc3LjUnLCAnLW50JywgJy1tYScsICcyMDAnLCAnLWltYWUnLCAnPGluZmlsZS5tYWU+JywgJy1vbWFlJywgJzxvdXRmaWxlLm1hZT4n

> <r_lp_tautomer_probability>
1

> <r_epik_Ionization_Penalty>
  0.0000

> <r_epik_Ionization_Penalty_Charging>
  0.0000

> <r_epik_Ionization_Penalty_Neutral>
  0.0000

> <r_epik_State_Penalty>
 -0.0000

> <r_epik_Charging_Adjusted_Penalty>
0

> <i_epik_Tot_Q>
0

> <i_epik_Tot_abs_Q>
0

> <s_epik_Chemistry_Notes>
This compound has an ester and may undergo hydrolysis at high or low pH.

> <s_lp_Force_Field>
OPLS3e

> <r_lp_Energy>
26.847883

> <b_lp_Chiralities_Consistent>
1

> <s_lp_Variant>
sdf/inactives_sanitized.sdf:68-1

$$$$
sdf/inactives_sanitized.sdf:69
                    3D
 Schrodinger Suite 2020-1.
 21 22  0  0  1  0            999 V2000
   -2.1614    3.6221   -0.0000 C   0  0  0  0  0  0
   -0.7834    3.7231   -0.0000 C   0  0  0  0  0  0
   -0.0310    2.5563   -0.0000 C   0  0  0  0  0  0
   -2.8098    2.4404   -0.0000 N   0  0  0  0  0  0
   -2.0985    1.2635    0.0000 C   0  0  0  0  0  0
   -0.6594    1.2664   -0.0000 C   0  0  0  0  0  0
    0.0431    0.0061    0.0000 C   0  0  0  0  0  0
   -0.7232   -1.1657    0.0000 C   0  0  0  0  0  0
   -2.1219   -1.2103    0.0000 C   0  0  0  0  0  0
   -2.8227    0.0202    0.0000 C   0  0  0  0  0  0
   -4.1041    0.0632    0.0000 O   0  5  0  0  0  0
    1.5347   -0.1428    0.0000 N   0  3  0  0  0  0
    2.0138   -1.2743   -0.0000 O   0  0  0  0  0  0
    2.2668    0.8365    0.0000 O   0  5  0  0  0  0
   -2.7893   -2.5766    0.0000 C   0  0  0  0  0  0
   -2.0547   -3.5922    0.0000 O   0  5  0  0  0  0
   -4.0379   -2.6612    0.0000 O   0  0  0  0  0  0
   -2.7779    4.5087   -0.0000 H   0  0  0  0  0  0
   -0.3019    4.6898   -0.0000 H   0  0  0  0  0  0
    1.0338    2.6902   -0.0000 H   0  0  0  0  0  0
   -0.1887   -2.1043    0.0000 H   0  0  0  0  0  0
  1  2  2  0  0  0
  1  4  1  0  0  0
  1 18  1  0  0  0
  2  3  1  0  0  0
  2 19  1  0  0  0
  3  6  2  0  0  0
  3 20  1  0  0  0
  4  5  2  0  0  0
  5  6  1  0  0  0
  5 10  1  0  0  0
  6  7  1  0  0  0
  7  8  2  0  0  0
  7 12  1  0  0  0
  8  9  1  0  0  0
  8 21  1  0  0  0
  9 10  2  0  0  0
  9 15  1  0  0  0
 10 11  1  0  0  0
 12 13  2  0  0  0
 12 14  1  0  0  0
 15 16  1  0  0  0
 15 17  2  0  0  0
M  CHG  4  11  -1  12   1  14  -1  16  -1
M  END
> <chembl_id>
CHEMBL2312221

> <chembl_pref_name>
None

> <s_m_source_file>
sdf/inactives_sanitized.sdf

> <i_m_source_file_index>
69

> <i_lp_mmshare_version>
49012

> <i_m_ct_stereo_status>
1

> <i_f3d_flags>
0

> <s_epik_input>
bjFbY0hdW2NIXVtjSF1jKGMxMiljKFtOK10oPU8pW08tXSlbY0hdYyhjMltPSF0pQyg9TylbT0hd

> <s_epik_cmdline>
J2VwaWtfcHl0aG9uJywgJy1waHQnLCAnMC41JywgJy1waCcsICc3LjUnLCAnLW50JywgJy1tYScsICcyMDAnLCAnLWltYWUnLCAnPGluZmlsZS5tYWU+JywgJy1vbWFlJywgJzxvdXRmaWxlLm1hZT4n

> <r_epik_Ionization_Penalty>
  0.2983

> <r_epik_Ionization_Penalty_Charging>
  0.2983

> <r_epik_Ionization_Penalty_Neutral>
  0.0000

> <r_epik_State_Penalty>
  0.2913

> <r_epik_Charging_Adjusted_Penalty>
0.589610097382519

> <i_epik_Tot_Q>
-2

> <i_epik_Tot_abs_Q>
4

> <s_lp_Force_Field>
OPLS3e

> <r_lp_Energy>
43.65637

> <b_lp_Chiralities_Consistent>
1

> <s_lp_Variant>
sdf/inactives_sanitized.sdf:69-1

$$$$
sdf/inactives_sanitized.sdf:69
                    3D
 Schrodinger Suite 2020-1.
 22 23  0  0  1  0            999 V2000
   -2.2338    3.5922   -0.0000 C   0  0  0  0  0  0
   -0.8559    3.7165   -0.0000 C   0  0  0  0  0  0
   -0.0814    2.5629   -0.0000 C   0  0  0  0  0  0
   -2.8645    2.3994    0.0000 N   0  0  0  0  0  0
   -2.1266    1.2454    0.0000 C   0  0  0  0  0  0
   -0.6895    1.2643   -0.0000 C   0  0  0  0  0  0
    0.0233    0.0085    0.0000 C   0  0  0  0  0  0
   -0.7348   -1.1707    0.0000 C   0  0  0  0  0  0
   -2.1334   -1.2165    0.0000 C   0  0  0  0  0  0
   -2.8352    0.0063    0.0000 C   0  0  0  0  0  0
   -4.2140    0.0505    0.0000 O   0  0  0  0  0  0
    1.5153   -0.1259    0.0000 N   0  3  0  0  0  0
    2.0043   -1.2530   -0.0000 O   0  0  0  0  0  0
    2.2353    0.8626    0.0000 O   0  5  0  0  0  0
   -2.8155   -2.5691    0.0000 C   0  0  0  0  0  0
   -2.0922   -3.5922    0.0000 O   0  5  0  0  0  0
   -4.0652   -2.6289    0.0000 O   0  0  0  0  0  0
   -2.8644    4.4690   -0.0000 H   0  0  0  0  0  0
   -0.3914    4.6916   -0.0000 H   0  0  0  0  0  0
    0.9820    2.7108   -0.0000 H   0  0  0  0  0  0
   -0.1990   -2.1090    0.0000 H   0  0  0  0  0  0
   -4.5509    0.9494    0.0000 H   0  0  0  0  0  0
  1  2  2  0  0  0
  1  4  1  0  0  0
  1 18  1  0  0  0
  2  3  1  0  0  0
  2 19  1  0  0  0
  3  6  2  0  0  0
  3 20  1  0  0  0
  4  5  2  0  0  0
  5  6  1  0  0  0
  5 10  1  0  0  0
  6  7  1  0  0  0
  7  8  2  0  0  0
  7 12  1  0  0  0
  8  9  1  0  0  0
  8 21  1  0  0  0
  9 10  2  0  0  0
  9 15  1  0  0  0
 10 11  1  0  0  0
 11 22  1  0  0  0
 12 13  2  0  0  0
 12 14  1  0  0  0
 15 16  1  0  0  0
 15 17  2  0  0  0
M  CHG  3  12   1  14  -1  16  -1
M  END
> <chembl_id>
CHEMBL2312221

> <chembl_pref_name>
None

> <s_m_source_file>
sdf/inactives_sanitized.sdf

> <i_m_source_file_index>
69

> <i_lp_mmshare_version>
49012

> <i_m_ct_stereo_status>
1

> <i_f3d_flags>
0

> <s_epik_input>
bjFbY0hdW2NIXVtjSF1jKGMxMiljKFtOK10oPU8pW08tXSlbY0hdYyhjMltPSF0pQyg9TylbT0hd

> <s_epik_cmdline>
J2VwaWtfcHl0aG9uJywgJy1waHQnLCAnMC41JywgJy1waCcsICc3LjUnLCAnLW50JywgJy1tYScsICcyMDAnLCAnLWltYWUnLCAnPGluZmlsZS5tYWU+JywgJy1vbWFlJywgJzxvdXRmaWxlLm1hZT4n

> <r_epik_Ionization_Penalty>
  0.5501

> <r_epik_Ionization_Penalty_Charging>
  0.0000

> <r_epik_Ionization_Penalty_Neutral>
  0.5501

> <r_epik_State_Penalty>
  0.5603

> <r_epik_Charging_Adjusted_Penalty>
0.560335213469473

> <i_epik_Tot_Q>
-1

> <i_epik_Tot_abs_Q>
3

> <s_lp_Force_Field>
OPLS3e

> <r_lp_Energy>
35.878449

> <b_lp_Chiralities_Consistent>
1

> <s_lp_Variant>
sdf/inactives_sanitized.sdf:69-2

$$$$
sdf/inactives_sanitized.sdf:70
                    3D
 Schrodinger Suite 2020-1.
 32 34  0  0  1  0            999 V2000
   -2.3304    3.3912   -0.5565 C   0  0  0  0  0  0
   -0.9591    3.5840   -0.5725 C   0  0  0  0  0  0
   -0.1309    2.4973   -0.3207 C   0  0  0  0  0  0
   -2.9055    2.1959   -0.3021 N   0  0  0  0  0  0
   -2.1207    1.0988   -0.0619 C   0  0  0  0  0  0
   -0.6852    1.2058   -0.0637 C   0  0  0  0  0  0
    0.1091    0.0442    0.2220 C   0  0  0  0  0  0
   -0.5449   -1.1407    0.5587 C   0  0  0  0  0  0
   -1.9258   -1.2389    0.5684 C   0  0  0  0  0  0
   -2.7532   -0.1590    0.2423 C   0  0  0  0  0  0
    1.5928    0.0392    0.1806 N   0  3  0  0  0  0
    2.1895   -0.6878    0.9700 O   0  0  0  0  0  0
    2.1688    0.7103   -0.6688 O   0  5  0  0  0  0
   -4.1445   -0.3257    0.2118 N   0  0  0  0  0  0
   -4.8385   -0.1191   -1.0751 C   0  0  0  0  0  0
   -6.3590    0.0803   -0.8957 C   0  0  0  0  0  0
   -6.9159   -1.0418   -0.2252 O   0  0  0  0  0  0
   -6.3222   -1.2516    1.0485 C   0  0  0  0  0  0
   -4.8010   -1.4622    0.8873 C   0  0  0  0  0  0
   -3.0026    4.2158   -0.7425 H   0  0  0  0  0  0
   -0.5425    4.5615   -0.7670 H   0  0  0  0  0  0
    0.9332    2.6660   -0.3016 H   0  0  0  0  0  0
    0.0288   -2.0261    0.7921 H   0  0  0  0  0  0
   -2.3450   -2.2043    0.8093 H   0  0  0  0  0  0
   -4.4495    0.7514   -1.5999 H   0  0  0  0  0  0
   -4.6407   -0.9687   -1.7310 H   0  0  0  0  0  0
   -6.5735    1.0007   -0.3491 H   0  0  0  0  0  0
   -6.8395    0.1759   -1.8696 H   0  0  0  0  0  0
   -6.5363   -0.4133    1.7146 H   0  0  0  0  0  0
   -6.7747   -2.1338    1.5017 H   0  0  0  0  0  0
   -4.5991   -2.3893    0.3481 H   0  0  0  0  0  0
   -4.3702   -1.5755    1.8833 H   0  0  0  0  0  0
  1  2  2  0  0  0
  1  4  1  0  0  0
  1 20  1  0  0  0
  2  3  1  0  0  0
  2 21  1  0  0  0
  3  6  2  0  0  0
  3 22  1  0  0  0
  4  5  2  0  0  0
  5  6  1  0  0  0
  5 10  1  0  0  0
  6  7  1  0  0  0
  7  8  2  0  0  0
  7 11  1  0  0  0
  8  9  1  0  0  0
  8 23  1  0  0  0
  9 10  2  0  0  0
  9 24  1  0  0  0
 10 14  1  0  0  0
 11 12  2  0  0  0
 11 13  1  0  0  0
 14 15  1  0  0  0
 14 19  1  0  0  0
 15 16  1  0  0  0
 15 25  1  0  0  0
 15 26  1  0  0  0
 16 17  1  0  0  0
 16 27  1  0  0  0
 16 28  1  0  0  0
 17 18  1  0  0  0
 18 19  1  0  0  0
 18 29  1  0  0  0
 18 30  1  0  0  0
 19 31  1  0  0  0
 19 32  1  0  0  0
M  CHG  2  11   1  13  -1
M  END
> <chembl_id>
CHEMBL2312224

> <chembl_pref_name>
None

> <s_m_source_file>
sdf/inactives_sanitized.sdf

> <i_m_source_file_index>
70

> <i_lp_mmshare_version>
49012

> <i_m_ct_stereo_status>
1

> <i_f3d_flags>
0

> <s_epik_input>
bjFbY0hdW2NIXVtjSF1jKGMxMiljKFtOK10oPU8pW08tXSlbY0hdW2NIXWMyTjNbQ0gyXVtDSDJdT1tDSDJdW0NIMl0z

> <s_epik_cmdline>
J2VwaWtfcHl0aG9uJywgJy1waHQnLCAnMC41JywgJy1waCcsICc3LjUnLCAnLW50JywgJy1tYScsICcyMDAnLCAnLWltYWUnLCAnPGluZmlsZS5tYWU+JywgJy1vbWFlJywgJzxvdXRmaWxlLm1hZT4n

> <r_lp_tautomer_probability>
1

> <r_epik_Ionization_Penalty>
  0.0000

> <r_epik_Ionization_Penalty_Charging>
  0.0000

> <r_epik_Ionization_Penalty_Neutral>
  0.0000

> <r_epik_State_Penalty>
 -0.0000

> <r_epik_Charging_Adjusted_Penalty>
0

> <i_epik_Tot_Q>
0

> <i_epik_Tot_abs_Q>
2

> <s_lp_Force_Field>
OPLS3e

> <r_lp_Energy>
42.016418

> <b_lp_Chiralities_Consistent>
1

> <s_lp_Variant>
sdf/inactives_sanitized.sdf:70-1

$$$$
sdf/inactives_sanitized.sdf:71
                    3D
 Schrodinger Suite 2020-1.
 22 23  0  0  1  0            999 V2000
   -2.1805    3.6980    0.0000 C   0  0  0  0  0  0
   -0.7984    3.7324    0.0000 C   0  0  0  0  0  0
   -0.0619    2.5545    0.0000 C   0  0  0  0  0  0
   -2.8446    2.4817    0.0000 C   0  0  0  0  0  0
   -2.1310    1.2451    0.0000 C   0  0  0  0  0  0
   -0.6887    1.2648    0.0000 C   0  0  0  0  0  0
    0.0299    0.0029   -0.0000 C   0  0  0  0  0  0
   -0.7241   -1.1779   -0.0000 C   0  0  0  0  0  0
   -2.1074   -1.1932   -0.0000 C   0  0  0  0  0  0
   -2.8280   -0.0019   -0.0000 C   0  0  0  0  0  0
    1.5212   -0.1391   -0.0000 N   0  3  0  0  0  0
    2.0011   -1.2703    0.0000 O   0  0  0  0  0  0
    2.2489    0.8433   -0.0000 O   0  5  0  0  0  0
   -4.2275   -0.0648   -0.0000 N   0  0  0  0  0  0
   -2.9817   -2.8931   -0.0000 Br  0  0  0  0  0  0
   -2.7427    4.6204    0.0000 H   0  0  0  0  0  0
   -0.2879    4.6844    0.0000 H   0  0  0  0  0  0
    1.0032    2.6840    0.0000 H   0  0  0  0  0  0
   -3.9245    2.4861   -0.0000 H   0  0  0  0  0  0
   -0.2292   -2.1383   -0.0000 H   0  0  0  0  0  0
   -4.6826   -0.9664    0.0000 H   0  0  0  0  0  0
   -4.7640    0.7903    0.0001 H   0  0  0  0  0  0
  1  2  2  0  0  0
  1  4  1  0  0  0
  1 16  1  0  0  0
  2  3  1  0  0  0
  2 17  1  0  0  0
  3  6  2  0  0  0
  3 18  1  0  0  0
  4  5  2  0  0  0
  4 19  1  0  0  0
  5  6  1  0  0  0
  5 10  1  0  0  0
  6  7  1  0  0  0
  7  8  2  0  0  0
  7 11  1  0  0  0
  8  9  1  0  0  0
  8 20  1  0  0  0
  9 10  2  0  0  0
  9 15  1  0  0  0
 10 14  1  0  0  0
 11 12  2  0  0  0
 11 13  1  0  0  0
 14 21  1  0  0  0
 14 22  1  0  0  0
M  CHG  2  11   1  13  -1
M  END
> <chembl_id>
CHEMBL2312203

> <chembl_pref_name>
None

> <s_m_source_file>
sdf/inactives_sanitized.sdf

> <i_m_source_file_index>
71

> <i_lp_mmshare_version>
49012

> <i_m_ct_stereo_status>
1

> <i_f3d_flags>
0

> <s_epik_input>
W2NIXTFbY0hdW2NIXVtjSF1jKGMxMiljKFtOK10oPU8pW08tXSlbY0hdYyhCciljMltOSDJd

> <s_epik_cmdline>
J2VwaWtfcHl0aG9uJywgJy1waHQnLCAnMC41JywgJy1waCcsICc3LjUnLCAnLW50JywgJy1tYScsICcyMDAnLCAnLWltYWUnLCAnPGluZmlsZS5tYWU+JywgJy1vbWFlJywgJzxvdXRmaWxlLm1hZT4n

> <r_lp_tautomer_probability>
1

> <r_epik_Ionization_Penalty>
  0.0000

> <r_epik_Ionization_Penalty_Charging>
  0.0000

> <r_epik_Ionization_Penalty_Neutral>
  0.0000

> <r_epik_State_Penalty>
 -0.0000

> <r_epik_Charging_Adjusted_Penalty>
0

> <i_epik_Tot_Q>
0

> <i_epik_Tot_abs_Q>
2

> <s_lp_Force_Field>
OPLS3e

> <r_lp_Energy>
30.634352

> <b_lp_Chiralities_Consistent>
1

> <s_lp_Variant>
sdf/inactives_sanitized.sdf:71-1

$$$$
sdf/inactives_sanitized.sdf:72
                    3D
 Schrodinger Suite 2020-1.
 33 35  0  0  1  0            999 V2000
   -0.7005    3.6158    0.4079 C   0  0  0  0  0  0
   -2.0831    3.7050    0.3752 C   0  0  0  0  0  0
   -2.8238    2.5408    0.2078 C   0  0  0  0  0  0
   -0.0303    2.4505    0.2711 N   0  0  0  0  0  0
   -0.7321    1.2867    0.0991 C   0  0  0  0  0  0
   -2.1700    1.2769    0.0815 C   0  0  0  0  0  0
   -2.8633    0.0288   -0.0855 C   0  0  0  0  0  0
   -2.1089   -1.1307   -0.2783 C   0  0  0  0  0  0
   -0.7234   -1.1159   -0.2712 C   0  0  0  0  0  0
   -0.0051    0.0659   -0.0763 C   0  0  0  0  0  0
   -4.3422   -0.0937   -0.0585 N   0  3  0  0  0  0
   -4.8621   -0.9590   -0.7575 O   0  0  0  0  0  0
   -4.9887    0.6260    0.6948 O   0  5  0  0  0  0
    1.4062    0.0603   -0.0592 N   0  0  0  0  0  0
    2.2062   -1.1550   -0.1988 C   0  0  0  0  0  0
    3.7090   -0.8862   -0.1578 C   0  0  0  0  0  0
    4.1604    0.0575    0.7169 N   0  0  0  0  0  0
    5.4979    0.2793    0.7853 C   0  0  0  0  0  0
    6.4228   -0.4234    0.0113 C   0  0  0  0  0  0
    5.9499   -1.3983   -0.8687 C   0  0  0  0  0  0
    4.5773   -1.6406   -0.9547 C   0  0  0  0  0  0
   -0.0973    4.5024    0.5373 H   0  0  0  0  0  0
   -2.5751    4.6616    0.4737 H   0  0  0  0  0  0
   -3.8968    2.6255    0.1599 H   0  0  0  0  0  0
   -2.6052   -2.0808   -0.4150 H   0  0  0  0  0  0
   -0.2152   -2.0578   -0.4135 H   0  0  0  0  0  0
    1.8926    0.9288    0.1154 H   0  0  0  0  0  0
    1.9510   -1.8742    0.5807 H   0  0  0  0  0  0
    1.9541   -1.6237   -1.1514 H   0  0  0  0  0  0
    5.8248    1.0377    1.4813 H   0  0  0  0  0  0
    7.4803   -0.2200    0.0937 H   0  0  0  0  0  0
    6.6411   -1.9634   -1.4766 H   0  0  0  0  0  0
    4.2000   -2.3972   -1.6274 H   0  0  0  0  0  0
  1  2  2  0  0  0
  1  4  1  0  0  0
  1 22  1  0  0  0
  2  3  1  0  0  0
  2 23  1  0  0  0
  3  6  2  0  0  0
  3 24  1  0  0  0
  4  5  2  0  0  0
  5  6  1  0  0  0
  5 10  1  0  0  0
  6  7  1  0  0  0
  7  8  2  0  0  0
  7 11  1  0  0  0
  8  9  1  0  0  0
  8 25  1  0  0  0
  9 10  2  0  0  0
  9 26  1  0  0  0
 10 14  1  0  0  0
 11 12  2  0  0  0
 11 13  1  0  0  0
 14 15  1  0  0  0
 14 27  1  0  0  0
 15 16  1  0  0  0
 15 28  1  0  0  0
 15 29  1  0  0  0
 16 17  2  0  0  0
 16 21  1  0  0  0
 17 18  1  0  0  0
 18 19  2  0  0  0
 18 30  1  0  0  0
 19 20  1  0  0  0
 19 31  1  0  0  0
 20 21  2  0  0  0
 20 32  1  0  0  0
 21 33  1  0  0  0
M  CHG  2  11   1  13  -1
M  END
> <chembl_id>
CHEMBL2312209

> <chembl_pref_name>
None

> <s_m_source_file>
sdf/inactives_sanitized.sdf

> <i_m_source_file_index>
72

> <i_lp_mmshare_version>
49012

> <i_m_ct_stereo_status>
1

> <i_f3d_flags>
0

> <s_epik_input>
bjFbY0hdW2NIXVtjSF1jKGMxMiljKFtOK10oPU8pW08tXSlbY0hdW2NIXWMyW05IXVtDSDJdYzNuW2NIXVtjSF1bY0hdW2NIXTM=

> <s_epik_cmdline>
J2VwaWtfcHl0aG9uJywgJy1waHQnLCAnMC41JywgJy1waCcsICc3LjUnLCAnLW50JywgJy1tYScsICcyMDAnLCAnLWltYWUnLCAnPGluZmlsZS5tYWU+JywgJy1vbWFlJywgJzxvdXRmaWxlLm1hZT4n

> <r_epik_Ionization_Penalty>
  0.1008

> <r_epik_Ionization_Penalty_Charging>
  0.0000

> <r_epik_Ionization_Penalty_Neutral>
  0.1008

> <r_epik_State_Penalty>
  0.0908

> <r_epik_Charging_Adjusted_Penalty>
0.0908432690543262

> <i_epik_Tot_Q>
0

> <i_epik_Tot_abs_Q>
2

> <s_lp_Force_Field>
OPLS3e

> <r_lp_Energy>
47.571962

> <b_lp_Chiralities_Consistent>
1

> <s_lp_Variant>
sdf/inactives_sanitized.sdf:72-1

$$$$
sdf/inactives_sanitized.sdf:73
                    3D
 Schrodinger Suite 2020-1.
 43 45  0  0  1  0            999 V2000
   -0.5389    5.9203   -1.0274 C   0  0  0  0  0  0
   -1.3364    6.0643    0.0985 C   0  0  0  0  0  0
   -1.7368    4.9223    0.7826 C   0  0  0  0  0  0
   -0.1222    4.7216   -1.4946 N   0  0  0  0  0  0
   -0.4984    3.5765   -0.8399 C   0  0  0  0  0  0
   -1.3345    3.6341    0.3244 C   0  0  0  0  0  0
   -1.7116    2.4218    0.9771 C   0  0  0  0  0  0
   -1.2429    1.2070    0.4829 C   0  0  0  0  0  0
   -0.4222    1.1312   -0.6383 C   0  0  0  0  0  0
   -0.0461    2.3022   -1.3160 C   0  0  0  0  0  0
    0.7077    2.2175   -2.3443 O   0  5  0  0  0  0
   -2.5847    2.4081    2.1649 N   0  3  0  0  0  0
   -2.1820    1.8154    3.1609 O   0  0  0  0  0  0
   -3.6781    2.9589    2.0871 O   0  5  0  0  0  0
    0.0381   -0.2542   -1.0967 C   0  0  0  0  0  0
    1.5255   -0.5394   -0.8281 N   0  3  0  0  0  0
    2.0090   -0.4363    0.6363 C   0  0  2  0  0  0
    3.5691   -0.5990    0.6947 C   0  0  1  0  0  0
    4.0009   -0.4426    2.1824 C   0  0  0  0  0  0
    3.3503   -1.5034    3.0996 C   0  0  0  0  0  0
    1.8094   -1.4721    2.9852 C   0  0  0  0  0  0
    1.3062   -1.5024    1.5243 C   0  0  0  0  0  0
    4.1392   -1.9238    0.0919 C   0  0  0  0  0  0
    5.3135   -2.2293    0.3982 O   0  5  0  0  0  0
    3.4687   -2.5435   -0.7637 O   0  0  0  0  0  0
   -0.2110    6.7883   -1.5800 H   0  0  0  0  0  0
   -1.6385    7.0441    0.4379 H   0  0  0  0  0  0
   -2.3484    5.0255    1.6659 H   0  0  0  0  0  0
   -1.5307    0.2957    0.9882 H   0  0  0  0  0  0
   -0.5057   -1.0664   -0.6137 H   0  0  0  0  0  0
   -0.0633   -0.3777   -2.1755 H   0  0  0  0  0  0
    1.7377   -1.4738   -1.1501 H   0  0  0  0  0  0
    1.7923    0.5807    0.9684 H   0  0  0  0  0  0
    4.0429    0.1846    0.1015 H   0  0  0  0  0  0
    5.0867   -0.4212    2.2897 H   0  0  0  0  0  0
    3.6643    0.5323    2.5394 H   0  0  0  0  0  0
    3.7185   -2.4984    2.8461 H   0  0  0  0  0  0
    3.6469   -1.3302    4.1346 H   0  0  0  0  0  0
    1.3793   -2.3046    3.5431 H   0  0  0  0  0  0
    1.4371   -0.5657    3.4651 H   0  0  0  0  0  0
    0.2228   -1.3938    1.4896 H   0  0  0  0  0  0
    1.4853   -2.4963    1.1122 H   0  0  0  0  0  0
    2.0883    0.0831   -1.3904 H   0  0  0  0  0  0
  1  2  2  0  0  0
  1  4  1  0  0  0
  1 26  1  0  0  0
  2  3  1  0  0  0
  2 27  1  0  0  0
  3  6  2  0  0  0
  3 28  1  0  0  0
  4  5  2  0  0  0
  5  6  1  0  0  0
  5 10  1  0  0  0
  6  7  1  0  0  0
  7  8  2  0  0  0
  7 12  1  0  0  0
  8  9  1  0  0  0
  8 29  1  0  0  0
  9 10  2  0  0  0
  9 15  1  0  0  0
 10 11  1  0  0  0
 12 13  2  0  0  0
 12 14  1  0  0  0
 15 16  1  0  0  0
 15 30  1  0  0  0
 15 31  1  0  0  0
 16 17  1  0  0  0
 16 32  1  0  0  0
 16 43  1  0  0  0
 17 18  1  0  0  0
 17 22  1  0  0  0
 17 33  1  0  0  0
 18 19  1  0  0  0
 18 23  1  0  0  0
 18 34  1  0  0  0
 19 20  1  0  0  0
 19 35  1  0  0  0
 19 36  1  0  0  0
 20 21  1  0  0  0
 20 37  1  0  0  0
 20 38  1  0  0  0
 21 22  1  0  0  0
 21 39  1  0  0  0
 21 40  1  0  0  0
 22 41  1  0  0  0
 22 42  1  0  0  0
 23 24  1  0  0  0
 23 25  2  0  0  0
M  CHG  5  11  -1  12   1  14  -1  16   1  24  -1
M  END
> <chembl_id>
CHEMBL2312220

> <chembl_pref_name>
None

> <i_m_ct_stereo_status>
1

> <s_m_source_file>
sdf/inactives_sanitized.sdf

> <i_m_source_file_index>
73

> <i_lp_mmshare_version>
49012

> <i_f3d_flags>
0

> <s_epik_input>
bjFbY0hdW2NIXVtjSF1jKGMxMiljKFtOK10oPU8pW08tXSlbY0hdYyhjMltPSF0pW0NIMl1bTkhdW0NAQEhdM1tDQEhdKEMoPU8pW09IXSlbQ0gyXVtDSDJdW0NIMl1bQ0gyXTM=

> <s_epik_cmdline>
J2VwaWtfcHl0aG9uJywgJy1waHQnLCAnMC41JywgJy1waCcsICc3LjUnLCAnLW50JywgJy1tYScsICcyMDAnLCAnLWltYWUnLCAnPGluZmlsZS5tYWU+JywgJy1vbWFlJywgJzxvdXRmaWxlLm1hZT4n

> <r_epik_Ionization_Penalty>
  0.0140

> <r_epik_Ionization_Penalty_Charging>
  0.0140

> <r_epik_Ionization_Penalty_Neutral>
  0.0000

> <r_epik_State_Penalty>
  0.0108

> <r_epik_Charging_Adjusted_Penalty>
0.024752177264516

> <i_epik_Tot_Q>
-1

> <i_epik_Tot_abs_Q>
5

> <s_lp_Force_Field>
OPLS3e

> <r_lp_Energy>
30.748538

> <b_lp_Chiralities_Consistent>
1

> <s_lp_Variant>
sdf/inactives_sanitized.sdf:73-1

$$$$
sdf/inactives_sanitized.sdf:74
                    3D
 Schrodinger Suite 2020-1.
 50 52  0  0  1  0            999 V2000
    2.9827    5.0589    4.1087 C   0  0  0  0  0  0
    2.4230    4.6152    5.2978 C   0  0  0  0  0  0
    1.3550    3.7271    5.2414 C   0  0  0  0  0  0
    2.5468    4.6665    2.8904 N   0  0  0  0  0  0
    1.4972    3.7878    2.8016 C   0  0  0  0  0  0
    0.8511    3.2903    3.9817 C   0  0  0  0  0  0
   -0.2411    2.3800    3.8523 C   0  0  0  0  0  0
   -0.6375    1.9675    2.5822 C   0  0  0  0  0  0
   -0.0147    2.4270    1.4258 C   0  0  0  0  0  0
    1.0428    3.3487    1.5147 C   0  0  0  0  0  0
    1.6060    3.7679    0.4475 O   0  5  0  0  0  0
   -0.9693    1.8562    5.0225 N   0  3  0  0  0  0
   -1.0908    0.6392    5.1206 O   0  0  0  0  0  0
   -1.4436    2.6609    5.8179 O   0  5  0  0  0  0
   -0.5358    1.9041    0.0859 C   0  0  0  0  0  0
   -0.0363    0.5033   -0.3126 N   0  3  0  0  0  0
    1.4751    0.3559   -0.5984 C   0  0  2  0  0  0
    1.7103   -0.7569   -1.6726 C   0  0  1  0  0  0
    3.2374   -0.8962   -1.9202 C   0  0  0  0  0  0
    4.0211   -1.2234   -0.6298 C   0  0  0  0  0  0
    3.7377   -0.1937    0.4856 C   0  0  0  0  0  0
    2.2296    0.0331    0.7220 C   0  0  0  0  0  0
    1.0600   -2.1436   -1.4132 C   0  0  0  0  0  0
    1.2511   -2.9964   -2.4441 O   0  0  0  0  0  0
    0.4360   -2.4052   -0.3820 O   0  0  0  0  0  0
    0.7447   -4.3236   -2.3955 C   0  0  0  0  0  0
    1.1105   -5.0522   -3.6923 C   0  0  0  0  0  0
    3.8133    5.7492    4.1187 H   0  0  0  0  0  0
    2.8104    4.9516    6.2482 H   0  0  0  0  0  0
    0.9205    3.3681    6.1618 H   0  0  0  0  0  0
   -1.4591    1.2701    2.4936 H   0  0  0  0  0  0
   -1.6206    1.7904    0.1034 H   0  0  0  0  0  0
   -0.2826    2.5422   -0.7617 H   0  0  0  0  0  0
   -0.3032   -0.1734    0.3883 H   0  0  0  0  0  0
    1.8272    1.3078   -1.0007 H   0  0  0  0  0  0
    1.2560   -0.4020   -2.5985 H   0  0  0  0  0  0
    3.4577   -1.6013   -2.7233 H   0  0  0  0  0  0
    3.6068    0.0568   -2.3030 H   0  0  0  0  0  0
    3.7578   -2.2230   -0.2810 H   0  0  0  0  0  0
    5.0905   -1.2518   -0.8428 H   0  0  0  0  0  0
    4.2155   -0.5104    1.4135 H   0  0  0  0  0  0
    4.1997    0.7585    0.2198 H   0  0  0  0  0  0
    2.0672    0.7942    1.4814 H   0  0  0  0  0  0
    1.8134   -0.8682    1.1727 H   0  0  0  0  0  0
    1.1668   -4.8530   -1.5397 H   0  0  0  0  0  0
   -0.3392   -4.3067   -2.2708 H   0  0  0  0  0  0
    0.7372   -6.0763   -3.6798 H   0  0  0  0  0  0
    2.1915   -5.0945   -3.8304 H   0  0  0  0  0  0
    0.6800   -4.5519   -4.5605 H   0  0  0  0  0  0
   -0.5243    0.2469   -1.1585 H   0  0  0  0  0  0
  1  2  2  0  0  0
  1  4  1  0  0  0
  1 28  1  0  0  0
  2  3  1  0  0  0
  2 29  1  0  0  0
  3  6  2  0  0  0
  3 30  1  0  0  0
  4  5  2  0  0  0
  5  6  1  0  0  0
  5 10  1  0  0  0
  6  7  1  0  0  0
  7  8  2  0  0  0
  7 12  1  0  0  0
  8  9  1  0  0  0
  8 31  1  0  0  0
  9 10  2  0  0  0
  9 15  1  0  0  0
 10 11  1  0  0  0
 12 13  2  0  0  0
 12 14  1  0  0  0
 15 16  1  0  0  0
 15 32  1  0  0  0
 15 33  1  0  0  0
 16 17  1  0  0  0
 16 34  1  0  0  0
 16 50  1  0  0  0
 17 18  1  0  0  0
 17 22  1  0  0  0
 17 35  1  0  0  0
 18 19  1  0  0  0
 18 23  1  0  0  0
 18 36  1  0  0  0
 19 20  1  0  0  0
 19 37  1  0  0  0
 19 38  1  0  0  0
 20 21  1  0  0  0
 20 39  1  0  0  0
 20 40  1  0  0  0
 21 22  1  0  0  0
 21 41  1  0  0  0
 21 42  1  0  0  0
 22 43  1  0  0  0
 22 44  1  0  0  0
 23 24  1  0  0  0
 23 25  2  0  0  0
 24 26  1  0  0  0
 26 27  1  0  0  0
 26 45  1  0  0  0
 26 46  1  0  0  0
 27 47  1  0  0  0
 27 48  1  0  0  0
 27 49  1  0  0  0
M  CHG  4  11  -1  12   1  14  -1  16   1
M  END
> <chembl_id>
CHEMBL2312219

> <chembl_pref_name>
None

> <i_m_ct_stereo_status>
1

> <s_m_source_file>
sdf/inactives_sanitized.sdf

> <i_m_source_file_index>
74

> <i_lp_mmshare_version>
49012

> <i_f3d_flags>
0

> <s_epik_input>
bjFbY0hdW2NIXVtjSF1jKGMxMiljKFtOK10oPU8pW08tXSlbY0hdYyhjMltPSF0pW0NIMl1bTkhdW0NAQEhdM1tDQEBIXShbQ0gyXVtDSDJdW0NIMl1bQ0gyXTMpQyg9TylPW0NIMl1bQ0gzXQ==

> <s_epik_cmdline>
J2VwaWtfcHl0aG9uJywgJy1waHQnLCAnMC41JywgJy1waCcsICc3LjUnLCAnLW50JywgJy1tYScsICcyMDAnLCAnLWltYWUnLCAnPGluZmlsZS5tYWU+JywgJy1vbWFlJywgJzxvdXRmaWxlLm1hZT4n

> <r_epik_Ionization_Penalty>
  0.1534

> <r_epik_Ionization_Penalty_Charging>
  0.1534

> <r_epik_Ionization_Penalty_Neutral>
  0.0000

> <r_epik_State_Penalty>
  0.1426

> <r_epik_Charging_Adjusted_Penalty>
0.296055271976345

> <i_epik_Tot_Q>
0

> <i_epik_Tot_abs_Q>
4

> <s_epik_Chemistry_Notes>
This compound has an ester and may undergo hydrolysis at high or low pH.

> <s_lp_Force_Field>
OPLS3e

> <r_lp_Energy>
34.528221

> <b_lp_Chiralities_Consistent>
1

> <s_lp_Variant>
sdf/inactives_sanitized.sdf:74-1

$$$$
sdf/inactives_sanitized.sdf:75
                    3D
 Schrodinger Suite 2020-1.
 84 85  0  0  1  0            999 V2000
   -8.3263    5.3784   -1.3632 C   0  0  0  0  0  0
   -7.9115    4.9394   -2.6180 C   0  0  0  0  0  0
   -6.6343    4.4076   -2.7746 C   0  0  0  0  0  0
   -5.7707    4.3169   -1.6798 C   0  0  0  0  0  0
   -6.1986    4.7566   -0.4200 C   0  0  0  0  0  0
   -7.4759    5.2886   -0.2636 C   0  0  0  0  0  0
   -4.3839    3.7205   -1.9034 C   0  0  0  0  0  0
   -3.5049    3.9708   -0.8096 O   0  0  0  0  0  0
   -2.2317    3.5352   -0.8372 C   0  0  0  0  0  0
   -1.7227    2.9100   -1.7707 O   0  0  0  0  0  0
   -0.2035    3.5380    0.6247 C   0  0  1  0  0  0
    0.3341    4.4071    1.7937 C   0  0  0  0  0  0
    0.2750    5.9391    1.5670 C   0  0  0  0  0  0
    1.0394    6.3862    0.3030 C   0  0  0  0  0  0
    0.7389    6.7026    2.8256 C   0  0  0  0  0  0
   -0.0083    2.0294    0.9203 C   0  0  0  0  0  0
   -0.9381    1.3569    1.3701 O   0  0  0  0  0  0
    1.2129    1.5342    0.6506 N   0  0  0  0  0  0
    1.5959    0.1237    0.7535 C   0  0  0  0  0  0
   -1.6050    3.9049    0.3479 N   0  0  0  0  0  0
    1.7023   -0.5389   -0.6366 C   0  0  0  0  0  0
    2.5994   -1.3523   -0.8545 O   0  0  0  0  0  0
    9.2334    6.6353   -2.6809 C   0  0  0  0  0  0
    8.2118    7.4085   -2.1327 C   0  0  0  0  0  0
    7.0681    6.7881   -1.6365 C   0  0  0  0  0  0
    6.9522    5.3972   -1.6914 C   0  0  0  0  0  0
    7.9782    4.6262   -2.2430 C   0  0  0  0  0  0
    9.1216    5.2473   -2.7389 C   0  0  0  0  0  0
    5.7074    4.7204   -1.1496 C   0  0  0  0  0  0
    4.7886    4.4953   -2.2114 O   0  0  0  0  0  0
    3.5972    3.9142   -1.9767 C   0  0  0  0  0  0
    3.1949    3.5567   -0.8657 O   0  0  0  0  0  0
    1.5983    3.1221   -3.2461 C   0  0  1  0  0  0
    0.9371    3.4116   -4.6199 C   0  0  0  0  0  0
    0.6975    4.9088   -4.9386 C   0  0  0  0  0  0
   -0.1939    5.6070   -3.8900 C   0  0  0  0  0  0
    0.1547    5.0893   -6.3720 C   0  0  0  0  0  0
    1.6799    1.5982   -2.9846 C   0  0  0  0  0  0
    2.6214    0.9415   -3.4322 O   0  0  0  0  0  0
    0.6835    1.0784   -2.2463 N   0  0  0  0  0  0
    0.6214   -0.2862   -1.7134 C   0  0  0  0  0  0
    2.9161    3.7805   -3.1830 N   0  0  0  0  0  0
   -9.3170    5.7912   -1.2412 H   0  0  0  0  0  0
   -8.5772    5.0105   -3.4655 H   0  0  0  0  0  0
   -6.3170    4.0664   -3.7495 H   0  0  0  0  0  0
   -5.5523    4.6888    0.4428 H   0  0  0  0  0  0
   -7.8063    5.6286    0.7068 H   0  0  0  0  0  0
   -4.4851    2.6451   -2.0593 H   0  0  0  0  0  0
   -3.9579    4.1516   -2.8115 H   0  0  0  0  0  0
    0.3867    3.7775   -0.2611 H   0  0  0  0  0  0
   -0.2194    4.1639    2.7031 H   0  0  0  0  0  0
    1.3720    4.1368    1.9989 H   0  0  0  0  0  0
   -0.7710    6.2106    1.4194 H   0  0  0  0  0  0
    1.7812    5.6512   -0.0054 H   0  0  0  0  0  0
    1.5656    7.3306    0.4423 H   0  0  0  0  0  0
    0.3519    6.5262   -0.5317 H   0  0  0  0  0  0
    1.6674    7.2509    2.6652 H   0  0  0  0  0  0
    0.9120    6.0337    3.6692 H   0  0  0  0  0  0
   -0.0148    7.4253    3.1395 H   0  0  0  0  0  0
    1.9274    2.1665    0.3168 H   0  0  0  0  0  0
    2.5568    0.0732    1.2671 H   0  0  0  0  0  0
    0.8911   -0.4494    1.3586 H   0  0  0  0  0  0
   -2.1503    4.3236    1.0871 H   0  0  0  0  0  0
   10.1205    7.1167   -3.0655 H   0  0  0  0  0  0
    8.3066    8.4837   -2.0928 H   0  0  0  0  0  0
    6.2756    7.3874   -1.2119 H   0  0  0  0  0  0
    7.8901    3.5502   -2.2887 H   0  0  0  0  0  0
    9.9178    4.6560   -3.1665 H   0  0  0  0  0  0
    5.9840    3.7768   -0.6757 H   0  0  0  0  0  0
    5.2563    5.3435   -0.3752 H   0  0  0  0  0  0
    0.9635    3.5668   -2.4778 H   0  0  0  0  0  0
    1.5511    2.9755   -5.4107 H   0  0  0  0  0  0
   -0.0240    2.8960   -4.6756 H   0  0  0  0  0  0
    1.6663    5.4092   -4.9184 H   0  0  0  0  0  0
   -0.8761    6.3310   -4.3357 H   0  0  0  0  0  0
    0.4162    6.1494   -3.1672 H   0  0  0  0  0  0
   -0.8027    4.8952   -3.3342 H   0  0  0  0  0  0
   -0.8703    5.4598   -6.3878 H   0  0  0  0  0  0
    0.1584    4.1536   -6.9321 H   0  0  0  0  0  0
    0.7654    5.7993   -6.9305 H   0  0  0  0  0  0
   -0.0736    1.6900   -1.9731 H   0  0  0  0  0  0
    0.7052   -1.0130   -2.5237 H   0  0  0  0  0  0
   -0.3620   -0.4403   -1.2690 H   0  0  0  0  0  0
    3.3894    4.0024   -4.0466 H   0  0  0  0  0  0
  1  2  2  0  0  0
  1  6  1  0  0  0
  1 43  1  0  0  0
  2  3  1  0  0  0
  2 44  1  0  0  0
  3  4  2  0  0  0
  3 45  1  0  0  0
  4  5  1  0  0  0
  4  7  1  0  0  0
  5  6  2  0  0  0
  5 46  1  0  0  0
  6 47  1  0  0  0
  7  8  1  0  0  0
  7 48  1  0  0  0
  7 49  1  0  0  0
  8  9  1  0  0  0
  9 10  2  0  0  0
  9 20  1  0  0  0
 11 12  1  0  0  0
 11 16  1  0  0  0
 11 20  1  0  0  0
 11 50  1  0  0  0
 12 13  1  0  0  0
 12 51  1  0  0  0
 12 52  1  0  0  0
 13 14  1  0  0  0
 13 15  1  0  0  0
 13 53  1  0  0  0
 14 54  1  0  0  0
 14 55  1  0  0  0
 14 56  1  0  0  0
 15 57  1  0  0  0
 15 58  1  0  0  0
 15 59  1  0  0  0
 16 17  2  0  0  0
 16 18  1  0  0  0
 18 19  1  0  0  0
 18 60  1  0  0  0
 19 21  1  0  0  0
 19 61  1  0  0  0
 19 62  1  0  0  0
 20 63  1  0  0  0
 21 22  2  0  0  0
 21 41  1  0  0  0
 23 24  2  0  0  0
 23 28  1  0  0  0
 23 64  1  0  0  0
 24 25  1  0  0  0
 24 65  1  0  0  0
 25 26  2  0  0  0
 25 66  1  0  0  0
 26 27  1  0  0  0
 26 29  1  0  0  0
 27 28  2  0  0  0
 27 67  1  0  0  0
 28 68  1  0  0  0
 29 30  1  0  0  0
 29 69  1  0  0  0
 29 70  1  0  0  0
 30 31  1  0  0  0
 31 32  2  0  0  0
 31 42  1  0  0  0
 33 34  1  0  0  0
 33 38  1  0  0  0
 33 42  1  0  0  0
 33 71  1  0  0  0
 34 35  1  0  0  0
 34 72  1  0  0  0
 34 73  1  0  0  0
 35 36  1  0  0  0
 35 37  1  0  0  0
 35 74  1  0  0  0
 36 75  1  0  0  0
 36 76  1  0  0  0
 36 77  1  0  0  0
 37 78  1  0  0  0
 37 79  1  0  0  0
 37 80  1  0  0  0
 38 39  2  0  0  0
 38 40  1  0  0  0
 40 41  1  0  0  0
 40 81  1  0  0  0
 41 82  1  0  0  0
 41 83  1  0  0  0
 42 84  1  0  0  0
M  END
> <chembl_id>
CHEMBL281540

> <chembl_pref_name>
None

> <i_m_ct_stereo_status>
1

> <s_m_source_file>
sdf/inactives_sanitized.sdf

> <i_m_source_file_index>
75

> <i_lp_mmshare_version>
49012

> <i_f3d_flags>
0

> <s_epik_input>
W2NIXTFbY0hdW2NIXVtjSF1bY0hdYzFbQ0gyXU9DKD1PKVtOSF1bQ0BASF0oW0NIMl1bQ0hdKFtDSDNdKVtDSDNdKUMoPU8pW05IXVtDSDJdQyg9TylbQ0gyXVtOSF1DKD1PKVtDQEhdKFtDSDJdW0NIXShbQ0gzXSlbQ0gzXSlbTkhdQyg9TylPW0NIMl1jMltjSF1bY0hdW2NIXVtjSF1bY0hdMg==

> <s_epik_cmdline>
J2VwaWtfcHl0aG9uJywgJy1waHQnLCAnMC41JywgJy1waCcsICc3LjUnLCAnLW50JywgJy1tYScsICcyMDAnLCAnLWltYWUnLCAnPGluZmlsZS5tYWU+JywgJy1vbWFlJywgJzxvdXRmaWxlLm1hZT4n

> <r_lp_tautomer_probability>
1

> <r_epik_Ionization_Penalty>
  0.0000

> <r_epik_Ionization_Penalty_Charging>
  0.0000

> <r_epik_Ionization_Penalty_Neutral>
  0.0000

> <r_epik_State_Penalty>
 -0.0000

> <r_epik_Charging_Adjusted_Penalty>
0

> <i_epik_Tot_Q>
0

> <i_epik_Tot_abs_Q>
0

> <s_epik_Chemistry_Notes>
This compound has an ester and may undergo hydrolysis at high or low pH.

> <s_lp_Force_Field>
OPLS3e

> <r_lp_Energy>
30.340493

> <b_lp_Chiralities_Consistent>
1

> <s_lp_Variant>
sdf/inactives_sanitized.sdf:75-1

$$$$
sdf/inactives_sanitized.sdf:76
                    3D
 Schrodinger Suite 2020-1.
 56 59  0  0  1  0            999 V2000
   -4.2975   -1.2787   -0.0013 C   0  0  0  0  0  0
   -2.7688   -1.4201    0.0895 C   0  0  2  0  0  0
   -2.1814   -0.6522    1.3050 C   0  0  0  0  0  0
   -0.6442   -0.7902    1.3544 C   0  0  0  0  0  0
   -0.0290   -0.2212    0.0503 C   0  0  2  0  0  0
   -0.5289   -1.1381   -1.0963 C   0  0  0  0  0  0
   -2.0611   -1.0075   -1.2303 C   0  0  0  0  0  0
    1.5301   -0.0860    0.1006 C   0  0  2  0  0  0
    1.9841    0.7022    1.2518 N   0  0  0  0  0  0
    2.6483    0.2343    2.3269 C   0  0  0  0  0  0
    2.9702   -0.9490    2.4562 O   0  0  0  0  0  0
    3.0089    1.2528    3.3864 C   0  0  0  0  0  0
    4.0385    0.9716    4.2968 C   0  0  0  0  0  0
    4.3788    1.8903    5.2860 C   0  0  0  0  0  0
    3.6901    3.0965    5.3746 C   0  0  0  0  0  0
    2.6639    3.3923    4.4822 C   0  0  0  0  0  0
    2.3230    2.4746    3.4920 C   0  0  0  0  0  0
    2.1381    0.5728   -1.1677 C   0  0  0  0  0  0
    1.4952    1.4732   -1.7133 O   0  0  0  0  0  0
    3.3494    0.1575   -1.6279 N   0  0  0  0  0  0
    4.1305   -0.9260   -1.0219 C   0  0  0  0  0  0
    5.4966   -0.7990   -1.6866 C   0  0  0  0  0  0
    5.2116   -0.2412   -3.0718 C   0  0  1  0  0  0
    4.9347   -1.2672   -4.0136 O   0  0  0  0  0  0
    4.0880   -0.7073   -4.9981 C   0  0  0  0  0  0
    3.1482    0.1872   -4.2143 C   0  0  0  0  0  0
    2.0064    0.5139   -4.5329 O   0  0  0  0  0  0
    3.9068    0.5599   -2.9381 C   0  0  1  0  0  0
   -4.5930   -0.2405   -0.1580 H   0  0  0  0  0  0
   -4.7803   -1.6269    0.9124 H   0  0  0  0  0  0
   -4.7001   -1.8667   -0.8266 H   0  0  0  0  0  0
   -2.5306   -2.4738    0.2482 H   0  0  0  0  0  0
   -2.4563    0.4023    1.2422 H   0  0  0  0  0  0
   -2.6334   -1.0086    2.2317 H   0  0  0  0  0  0
   -0.2800   -0.2359    2.2192 H   0  0  0  0  0  0
   -0.3138   -1.8146    1.5346 H   0  0  0  0  0  0
   -0.4240    0.7881   -0.0903 H   0  0  0  0  0  0
   -0.0753   -0.8436   -2.0429 H   0  0  0  0  0  0
   -0.2006   -2.1688   -0.9524 H   0  0  0  0  0  0
   -2.3242    0.0207   -1.4849 H   0  0  0  0  0  0
   -2.4312   -1.6090   -2.0618 H   0  0  0  0  0  0
    1.9023   -1.1074    0.1833 H   0  0  0  0  0  0
    1.7697    1.6875    1.2074 H   0  0  0  0  0  0
    4.5856    0.0405    4.2452 H   0  0  0  0  0  0
    5.1732    1.6668    5.9830 H   0  0  0  0  0  0
    3.9532    3.8080    6.1434 H   0  0  0  0  0  0
    2.1318    4.3290    4.5595 H   0  0  0  0  0  0
    1.5170    2.7254    2.8173 H   0  0  0  0  0  0
    4.2047   -0.8331    0.0615 H   0  0  0  0  0  0
    3.6645   -1.8829   -1.2617 H   0  0  0  0  0  0
    6.1335   -0.1114   -1.1279 H   0  0  0  0  0  0
    5.9993   -1.7665   -1.7114 H   0  0  0  0  0  0
    6.0374    0.3892   -3.4087 H   0  0  0  0  0  0
    4.6672   -0.1182   -5.7104 H   0  0  0  0  0  0
    3.5518   -1.4859   -5.5408 H   0  0  0  0  0  0
    4.1148    1.6306   -2.9257 H   0  0  0  0  0  0
  1  2  1  0  0  0
  1 29  1  0  0  0
  1 30  1  0  0  0
  1 31  1  0  0  0
  2  3  1  0  0  0
  2  7  1  0  0  0
  2 32  1  0  0  0
  3  4  1  0  0  0
  3 33  1  0  0  0
  3 34  1  0  0  0
  4  5  1  0  0  0
  4 35  1  0  0  0
  4 36  1  0  0  0
  5  6  1  0  0  0
  5  8  1  0  0  0
  5 37  1  0  0  0
  6  7  1  0  0  0
  6 38  1  0  0  0
  6 39  1  0  0  0
  7 40  1  0  0  0
  7 41  1  0  0  0
  8  9  1  0  0  0
  8 18  1  0  0  0
  8 42  1  0  0  0
  9 10  1  0  0  0
  9 43  1  0  0  0
 10 11  2  0  0  0
 10 12  1  0  0  0
 12 13  2  0  0  0
 12 17  1  0  0  0
 13 14  1  0  0  0
 13 44  1  0  0  0
 14 15  2  0  0  0
 14 45  1  0  0  0
 15 16  1  0  0  0
 15 46  1  0  0  0
 16 17  2  0  0  0
 16 47  1  0  0  0
 17 48  1  0  0  0
 18 19  2  0  0  0
 18 20  1  0  0  0
 20 21  1  0  0  0
 20 28  1  0  0  0
 21 22  1  0  0  0
 21 49  1  0  0  0
 21 50  1  0  0  0
 22 23  1  0  0  0
 22 51  1  0  0  0
 22 52  1  0  0  0
 23 24  1  0  0  0
 23 28  1  0  0  0
 23 53  1  0  0  0
 24 25  1  0  0  0
 25 26  1  0  0  0
 25 54  1  0  0  0
 25 55  1  0  0  0
 26 27  2  0  0  0
 26 28  1  0  0  0
 28 56  1  0  0  0
M  END
> <chembl_id>
CHEMBL3926790

> <chembl_pref_name>
None

> <i_m_ct_stereo_status>
1

> <s_m_source_file>
sdf/inactives_sanitized.sdf

> <i_m_source_file_index>
76

> <i_lp_mmshare_version>
49012

> <i_f3d_flags>
0

> <s_epik_input>
TzFbQ0gyXUMoPU8pW0NASF0oW0NASF0xMilOKFtDSDJdW0NIMl0yKUMoPU8pW0NASF0oW0NAQEhdKFtDSDJdW0NIMl0zKVtDSDJdW0NIMl1bQ0BIXTNbQ0gzXSlbTkhdQyg9TyljNFtjSF1bY0hdW2NIXVtjSF1bY0hdNA==

> <s_epik_cmdline>
J2VwaWtfcHl0aG9uJywgJy1waHQnLCAnMC41JywgJy1waCcsICc3LjUnLCAnLW50JywgJy1tYScsICcyMDAnLCAnLWltYWUnLCAnPGluZmlsZS5tYWU+JywgJy1vbWFlJywgJzxvdXRmaWxlLm1hZT4n

> <r_lp_tautomer_probability>
1

> <r_epik_Ionization_Penalty>
  0.0000

> <r_epik_Ionization_Penalty_Charging>
  0.0000

> <r_epik_Ionization_Penalty_Neutral>
  0.0000

> <r_epik_State_Penalty>
 -0.0000

> <r_epik_Charging_Adjusted_Penalty>
0

> <i_epik_Tot_Q>
0

> <i_epik_Tot_abs_Q>
0

> <s_lp_Force_Field>
OPLS3e

> <r_lp_Energy>
26.565421

> <b_lp_Chiralities_Consistent>
1

> <s_lp_Variant>
sdf/inactives_sanitized.sdf:76-1

$$$$
sdf/inactives_sanitized.sdf:77
                    3D
 Schrodinger Suite 2020-1.
 58 62  0  0  1  0            999 V2000
   -0.3516    2.1723    0.5280 O   0  0  0  0  0  0
   -0.7253    1.0433    0.2026 C   0  0  0  0  0  0
    0.1306    0.0255   -0.0169 N   0  0  0  0  0  0
    1.5965    0.0842    0.0667 C   0  0  1  0  0  0
    2.1640   -0.5485    1.3864 C   0  0  0  0  0  0
    1.4412   -0.0983    2.6814 C   0  0  0  0  0  0
    1.8917   -0.9853    3.8625 C   0  0  0  0  0  0
    3.4286   -0.9229    4.0551 C   0  0  0  0  0  0
    4.2203   -1.1242    2.7378 C   0  0  0  0  0  0
    3.6613   -0.2214    1.6187 C   0  0  0  0  0  0
    2.1841   -0.5186   -1.2441 C   0  0  0  0  0  0
    2.7891   -1.5907   -1.1686 O   0  0  0  0  0  0
    1.9681    0.1110   -2.4337 N   0  0  0  0  0  0
    1.3697    1.4535   -2.5431 C   0  0  0  0  0  0
    1.8562    1.9772   -3.8940 C   0  0  0  0  0  0
    2.1464    0.7275   -4.7133 C   0  0  1  0  0  0
    3.2119    0.8554   -5.6420 O   0  0  0  0  0  0
    4.4304    0.5841   -4.9716 C   0  0  0  0  0  0
    4.0801   -0.4014   -3.8698 C   0  0  0  0  0  0
    4.8759   -1.0714   -3.2146 O   0  0  0  0  0  0
    2.5560   -0.3501   -3.7125 C   0  0  1  0  0  0
   -2.1990    0.7320    0.0398 C   0  0  0  0  0  0
   -2.6413   -0.4595   -0.5611 C   0  0  0  0  0  0
   -4.0018   -0.7238   -0.7056 C   0  0  0  0  0  0
   -4.9456    0.1966   -0.2574 C   0  0  0  0  0  0
   -4.5326    1.3943    0.3403 C   0  0  0  0  0  0
   -3.1624    1.6519    0.4845 C   0  0  0  0  0  0
   -5.4811    2.3422    0.7899 N   0  0  0  0  0  0
   -5.3608    3.7103    0.8992 C   0  0  0  0  0  0
   -6.4648    4.2468    1.3531 N   0  0  0  0  0  0
   -7.3336    3.1778    1.5432 N   0  0  0  0  0  0
   -6.7155    1.9935    1.1884 N   0  0  0  0  0  0
   -0.2460   -0.8748   -0.2738 H   0  0  0  0  0  0
    1.9150    1.1270    0.0988 H   0  0  0  0  0  0
    2.0260   -1.6285    1.2934 H   0  0  0  0  0  0
    1.5816    0.9681    2.8665 H   0  0  0  0  0  0
    0.3629   -0.2136    2.5753 H   0  0  0  0  0  0
    1.3893   -0.6732    4.7786 H   0  0  0  0  0  0
    1.5876   -2.0180    3.6843 H   0  0  0  0  0  0
    3.6893    0.0498    4.4749 H   0  0  0  0  0  0
    3.7419   -1.6612    4.7942 H   0  0  0  0  0  0
    5.2768   -0.9087    2.9012 H   0  0  0  0  0  0
    4.1652   -2.1700    2.4310 H   0  0  0  0  0  0
    3.8141    0.8421    1.8109 H   0  0  0  0  0  0
    4.2359   -0.4155    0.7132 H   0  0  0  0  0  0
    0.2826    1.3786   -2.5915 H   0  0  0  0  0  0
    1.7061    2.1516   -1.7761 H   0  0  0  0  0  0
    1.1011    2.6153   -4.3544 H   0  0  0  0  0  0
    2.7595    2.5777   -3.7755 H   0  0  0  0  0  0
    1.2487    0.4361   -5.2613 H   0  0  0  0  0  0
    5.1699    0.1752   -5.6601 H   0  0  0  0  0  0
    4.8313    1.4996   -4.5357 H   0  0  0  0  0  0
    2.1374   -1.3165   -3.9962 H   0  0  0  0  0  0
   -1.9413   -1.1962   -0.9279 H   0  0  0  0  0  0
   -4.3253   -1.6441   -1.1694 H   0  0  0  0  0  0
   -5.9952   -0.0266   -0.3848 H   0  0  0  0  0  0
   -2.8448    2.5728    0.9535 H   0  0  0  0  0  0
   -4.4498    4.2192    0.6213 H   0  0  0  0  0  0
  1  2  2  0  0  0
  2  3  1  0  0  0
  2 22  1  0  0  0
  3  4  1  0  0  0
  3 33  1  0  0  0
  4  5  1  0  0  0
  4 11  1  0  0  0
  4 34  1  0  0  0
  5  6  1  0  0  0
  5 10  1  0  0  0
  5 35  1  0  0  0
  6  7  1  0  0  0
  6 36  1  0  0  0
  6 37  1  0  0  0
  7  8  1  0  0  0
  7 38  1  0  0  0
  7 39  1  0  0  0
  8  9  1  0  0  0
  8 40  1  0  0  0
  8 41  1  0  0  0
  9 10  1  0  0  0
  9 42  1  0  0  0
  9 43  1  0  0  0
 10 44  1  0  0  0
 10 45  1  0  0  0
 11 12  2  0  0  0
 11 13  1  0  0  0
 13 14  1  0  0  0
 13 21  1  0  0  0
 14 15  1  0  0  0
 14 46  1  0  0  0
 14 47  1  0  0  0
 15 16  1  0  0  0
 15 48  1  0  0  0
 15 49  1  0  0  0
 16 17  1  0  0  0
 16 21  1  0  0  0
 16 50  1  0  0  0
 17 18  1  0  0  0
 18 19  1  0  0  0
 18 51  1  0  0  0
 18 52  1  0  0  0
 19 20  2  0  0  0
 19 21  1  0  0  0
 21 53  1  0  0  0
 22 23  2  0  0  0
 22 27  1  0  0  0
 23 24  1  0  0  0
 23 54  1  0  0  0
 24 25  2  0  0  0
 24 55  1  0  0  0
 25 26  1  0  0  0
 25 56  1  0  0  0
 26 27  2  0  0  0
 26 28  1  0  0  0
 27 57  1  0  0  0
 28 29  1  0  0  0
 28 32  1  0  0  0
 29 30  2  0  0  0
 29 58  1  0  0  0
 30 31  1  0  0  0
 31 32  2  0  0  0
M  END
> <chembl_id>
CHEMBL3648403

> <chembl_pref_name>
None

> <i_m_ct_stereo_status>
1

> <s_m_source_file>
sdf/inactives_sanitized.sdf

> <i_m_source_file_index>
77

> <i_lp_mmshare_version>
49012

> <i_f3d_flags>
0

> <s_epik_input>
W0NIMl0xW0NIMl1bQ0gyXVtDSDJdW0NIMl1bQ0hdMVtDQEBIXShDKD1PKU4oW0NIMl1bQ0gyXTIpW0NAQEhdKFtDQEBIXTIzKUMoPU8pW0NIMl1PMylbTkhdQyg9TyljNFtjSF1bY0hdW2NIXWMoW2NIXTQpLW41W2NIXW5ubjU=

> <s_epik_cmdline>
J2VwaWtfcHl0aG9uJywgJy1waHQnLCAnMC41JywgJy1waCcsICc3LjUnLCAnLW50JywgJy1tYScsICcyMDAnLCAnLWltYWUnLCAnPGluZmlsZS5tYWU+JywgJy1vbWFlJywgJzxvdXRmaWxlLm1hZT4n

> <r_lp_tautomer_probability>
1

> <r_epik_Ionization_Penalty>
  0.0000

> <r_epik_Ionization_Penalty_Charging>
  0.0000

> <r_epik_Ionization_Penalty_Neutral>
  0.0000

> <r_epik_State_Penalty>
 -0.0000

> <r_epik_Charging_Adjusted_Penalty>
0

> <i_epik_Tot_Q>
0

> <i_epik_Tot_abs_Q>
0

> <s_lp_Force_Field>
OPLS3e

> <r_lp_Energy>
35.241392

> <b_lp_Chiralities_Consistent>
1

> <s_lp_Variant>
sdf/inactives_sanitized.sdf:77-1

$$$$
sdf/inactives_sanitized.sdf:78
                    3D
 Schrodinger Suite 2020-1.
 67 70  0  0  1  0            999 V2000
   -4.2990   -0.5408    1.2730 C   0  0  0  0  0  0
   -2.7583   -0.5659    1.4043 C   0  0  0  0  0  0
   -1.9545   -1.5734    0.4899 C   0  0  0  0  0  0
   -2.6354   -1.7496   -0.9114 C   0  0  0  0  0  0
   -4.1763   -1.7631   -0.9394 C   0  0  0  0  0  0
   -4.7713   -0.5661   -0.1865 C   0  0  0  0  0  0
   -0.5277   -1.2069    0.3447 N   0  0  0  0  0  0
   -1.9529   -2.9989    1.1499 C   0  0  0  0  0  0
   -2.9989   -3.3616    1.9172 N   0  0  0  0  0  0
   -1.0416   -3.7982    0.9119 O   0  0  0  0  0  0
   -3.1379   -4.6505    2.5901 C   0  0  0  0  0  0
   -2.1231   -4.8615    3.6375 C   0  0  0  0  0  0
   -1.3266   -5.0270    4.4602 N   0  0  0  0  0  0
    0.0170   -0.0546   -0.1031 C   0  0  0  0  0  0
    1.5315   -0.0051   -0.1586 C   0  0  0  0  0  0
   -0.6551    0.9193   -0.4482 O   0  0  0  0  0  0
    2.1777    1.2029   -0.4551 C   0  0  0  0  0  0
    3.5668    1.2701   -0.5186 C   0  0  0  0  0  0
    4.3448    0.1311   -0.2890 C   0  0  0  0  0  0
    3.7045   -1.0772    0.0087 C   0  0  0  0  0  0
    2.3161   -1.1463    0.0738 C   0  0  0  0  0  0
    5.8406    0.2146   -0.3745 C   0  0  0  0  0  0
    6.5601   -0.8767   -0.5855 N   0  0  0  0  0  0
    7.8530   -0.6614   -0.6615 C   0  0  0  0  0  0
    8.2922    0.9999   -0.4423 S   0  0  0  0  0  0
    6.6087    1.3753   -0.2574 C   0  0  0  0  0  0
    8.8679   -1.7601   -0.9237 C   0  0  0  0  0  0
    8.5256   -2.6079   -2.0749 N   0  0  1  0  0  0
    8.4354   -1.9106   -3.3681 C   0  0  0  0  0  0
    9.8195   -1.4635   -3.8939 C   0  0  0  0  0  0
   10.7124   -2.7161   -4.0364 N   0  3  0  0  0  0
   10.8117   -3.4511   -2.6805 C   0  0  0  0  0  0
    9.3805   -3.7962   -2.2008 C   0  0  0  0  0  0
   12.1126   -2.3291   -4.5497 C   0  0  0  0  0  0
   -4.6926    0.3474    1.7692 H   0  0  0  0  0  0
   -4.7361   -1.3851    1.8052 H   0  0  0  0  0  0
   -2.4236   -0.6241    2.4417 H   0  0  0  0  0  0
   -2.4345    0.4460    1.1707 H   0  0  0  0  0  0
   -2.3073   -0.9268   -1.5482 H   0  0  0  0  0  0
   -2.2045   -2.5882   -1.4633 H   0  0  0  0  0  0
   -4.5248   -1.7592   -1.9730 H   0  0  0  0  0  0
   -4.5442   -2.6919   -0.5016 H   0  0  0  0  0  0
   -5.8606   -0.6087   -0.2227 H   0  0  0  0  0  0
   -4.4843    0.3621   -0.6835 H   0  0  0  0  0  0
    0.0907   -2.0044    0.3093 H   0  0  0  0  0  0
   -3.7152   -2.6761    2.1081 H   0  0  0  0  0  0
   -4.1206   -4.7005    3.0591 H   0  0  0  0  0  0
   -3.0826   -5.4700    1.8720 H   0  0  0  0  0  0
    1.6113    2.1043   -0.6426 H   0  0  0  0  0  0
    4.0305    2.2159   -0.7575 H   0  0  0  0  0  0
    4.2785   -1.9739    0.1928 H   0  0  0  0  0  0
    1.8679   -2.1022    0.3039 H   0  0  0  0  0  0
    6.2826    2.3895   -0.0797 H   0  0  0  0  0  0
    9.8633   -1.3354   -1.0533 H   0  0  0  0  0  0
    8.9324   -2.3901   -0.0351 H   0  0  0  0  0  0
    7.9545   -2.5692   -4.0932 H   0  0  0  0  0  0
    7.7783   -1.0447   -3.2818 H   0  0  0  0  0  0
    9.7445   -1.0274   -4.8910 H   0  0  0  0  0  0
   10.3276   -0.7600   -3.2321 H   0  0  0  0  0  0
   11.3966   -4.3529   -2.8671 H   0  0  0  0  0  0
   11.3577   -2.8077   -1.9885 H   0  0  0  0  0  0
    9.4283   -4.3124   -1.2409 H   0  0  0  0  0  0
    8.9124   -4.4998   -2.8913 H   0  0  0  0  0  0
   12.5671   -1.6532   -3.8233 H   0  0  0  0  0  0
   11.9770   -1.8468   -5.5186 H   0  0  0  0  0  0
   12.6834   -3.2529   -4.6525 H   0  0  0  0  0  0
   10.2738   -3.3395   -4.7000 H   0  0  0  0  0  0
  1  6  1  0  0  0
  1  2  1  0  0  0
  1 35  1  0  0  0
  1 36  1  0  0  0
  2  3  1  0  0  0
  2 37  1  0  0  0
  2 38  1  0  0  0
  3  4  1  0  0  0
  3  7  1  0  0  0
  3  8  1  0  0  0
  4  5  1  0  0  0
  4 39  1  0  0  0
  4 40  1  0  0  0
  5  6  1  0  0  0
  5 41  1  0  0  0
  5 42  1  0  0  0
  6 43  1  0  0  0
  6 44  1  0  0  0
  7 14  1  0  0  0
  7 45  1  0  0  0
  8  9  1  0  0  0
  8 10  2  0  0  0
  9 11  1  0  0  0
  9 46  1  0  0  0
 11 12  1  0  0  0
 11 47  1  0  0  0
 11 48  1  0  0  0
 12 13  3  0  0  0
 14 15  1  0  0  0
 14 16  2  0  0  0
 15 17  2  0  0  0
 15 21  1  0  0  0
 17 18  1  0  0  0
 17 49  1  0  0  0
 18 19  2  0  0  0
 18 50  1  0  0  0
 19 20  1  0  0  0
 19 22  1  0  0  0
 20 21  2  0  0  0
 20 51  1  0  0  0
 21 52  1  0  0  0
 22 23  1  0  0  0
 22 26  2  0  0  0
 23 24  2  0  0  0
 24 25  1  0  0  0
 24 27  1  0  0  0
 25 26  1  0  0  0
 26 53  1  0  0  0
 27 28  1  0  0  0
 27 54  1  0  0  0
 27 55  1  0  0  0
 28 29  1  0  0  0
 28 33  1  0  0  0
 29 30  1  0  0  0
 29 56  1  0  0  0
 29 57  1  0  0  0
 30 31  1  0  0  0
 30 58  1  0  0  0
 30 59  1  0  0  0
 31 32  1  0  0  0
 31 34  1  0  0  0
 31 67  1  0  0  0
 32 33  1  0  0  0
 32 60  1  0  0  0
 32 61  1  0  0  0
 33 62  1  0  0  0
 33 63  1  0  0  0
 34 64  1  0  0  0
 34 65  1  0  0  0
 34 66  1  0  0  0
M  CHG  1  31   1
M  END
> <chembl_id>
CHEMBL200506

> <chembl_pref_name>
None

> <s_m_source_file>
sdf/inactives_sanitized.sdf

> <i_m_source_file_index>
78

> <i_lp_mmshare_version>
49012

> <i_m_ct_stereo_status>
1

> <i_f3d_flags>
0

> <s_epik_input>
W0NIMl0xW0NIMl1bQ0gyXVtDSDJdW0NIMl1DMShDKD1PKVtOSF1bQ0gyXUMjTilbTkhdQyg9TyljMltjSF1bY0hdYyhbY0hdW2NIXTIpLWMzbmMoc1tjSF0zKVtDSDJdTjRbQ0gyXVtDSDJdTihbQ0gzXSlbQ0gyXVtDSDJdNA==

> <s_epik_cmdline>
J2VwaWtfcHl0aG9uJywgJy1waHQnLCAnMC41JywgJy1waCcsICc3LjUnLCAnLW50JywgJy1tYScsICcyMDAnLCAnLWltYWUnLCAnPGluZmlsZS5tYWU+JywgJy1vbWFlJywgJzxvdXRmaWxlLm1hZT4n

> <r_epik_Ionization_Penalty>
  0.1821

> <r_epik_Ionization_Penalty_Charging>
  0.1820

> <r_epik_Ionization_Penalty_Neutral>
  0.0001

> <r_epik_State_Penalty>
  0.2042

> <r_epik_Charging_Adjusted_Penalty>
0.386210499156037

> <i_epik_Tot_Q>
1

> <i_epik_Tot_abs_Q>
1

> <s_lp_Force_Field>
OPLS3e

> <r_lp_Energy>
68.067576

> <b_lp_Chiralities_Consistent>
1

> <s_lp_Variant>
sdf/inactives_sanitized.sdf:78-1

$$$$
sdf/inactives_sanitized.sdf:79
                    3D
 Schrodinger Suite 2020-1.
 67 68  0  0  1  0            999 V2000
   -2.5941    1.7654   -1.0680 C   0  0  0  0  0  0
   -1.9605    1.6588    0.3252 C   0  0  2  0  0  0
    0.0428    0.2380   -0.3679 C   0  0  0  0  0  0
   -0.5261    1.3033    0.2354 N   0  0  0  0  0  0
   -2.0645    2.9510   -1.9810 C   0  0  0  0  0  0
    2.5396    0.0127   -2.4916 C   0  0  0  0  0  0
    1.5665    0.0765   -0.1492 C   0  0  2  0  0  0
    2.2323   -0.6073   -1.2779 N   0  0  0  0  0  0
   -3.4956    1.0214   -1.4673 O   0  0  0  0  0  0
   -2.7292    0.6788    1.2588 C   0  0  0  0  0  0
   -0.5811   -0.6080   -1.0113 O   0  0  0  0  0  0
    3.0222   -0.5782   -3.4580 O   0  0  0  0  0  0
   -1.2709    3.7901   -1.5524 O   0  0  0  0  0  0
    2.2704    1.3403   -2.4692 O   0  0  0  0  0  0
    1.8385   -0.7199    1.1559 C   0  0  0  0  0  0
   -2.5899    2.9191   -3.2206 N   0  0  0  0  0  0
    2.5928    2.1807   -3.5720 C   0  0  0  0  0  0
   -2.1880    0.5684    2.6755 C   0  0  0  0  0  0
    2.4476    3.6603   -3.2263 C   0  0  0  0  0  0
    3.3243   -0.8290    1.5752 C   0  0  0  0  0  0
   -2.3174    3.8941   -4.2742 C   0  0  0  0  0  0
   -1.3100   -0.4797    3.0251 C   0  0  0  0  0  0
   -2.4366    1.5943    3.6117 C   0  0  0  0  0  0
    2.8178    4.6001   -4.1915 C   0  0  0  0  0  0
    1.9481    4.0949   -1.9907 C   0  0  0  0  0  0
    3.4859   -1.7791    2.7816 C   0  0  0  0  0  0
    3.9681    0.5511    1.8299 C   0  0  0  0  0  0
   -0.9337    3.7287   -4.9192 C   0  0  0  0  0  0
   -0.7459   -0.5209    4.2931 C   0  0  0  0  0  0
   -1.8639    1.5341    4.8756 C   0  0  0  0  0  0
    2.6900    5.9616   -3.9293 C   0  0  0  0  0  0
    1.8200    5.4561   -1.7292 C   0  0  0  0  0  0
   -1.0258    0.4793    5.2157 C   0  0  0  0  0  0
    2.1909    6.3835   -2.6995 C   0  0  0  0  0  0
   -1.9968    2.6410    0.7993 H   0  0  0  0  0  0
    0.0745    1.8800    0.8067 H   0  0  0  0  0  0
    2.0012    1.0695   -0.0168 H   0  0  0  0  0  0
    2.3750   -1.6034   -1.1983 H   0  0  0  0  0  0
   -3.7731    0.9892    1.3321 H   0  0  0  0  0  0
   -2.7472   -0.3241    0.8278 H   0  0  0  0  0  0
    1.2981   -0.2593    1.9843 H   0  0  0  0  0  0
    1.4210   -1.7241    1.0543 H   0  0  0  0  0  0
   -3.2349    2.1764   -3.4501 H   0  0  0  0  0  0
    3.6215    1.9988   -3.8886 H   0  0  0  0  0  0
    1.9361    1.9447   -4.4109 H   0  0  0  0  0  0
    3.8679   -1.2908    0.7501 H   0  0  0  0  0  0
   -3.0858    3.7804   -5.0395 H   0  0  0  0  0  0
   -2.4304    4.9072   -3.8832 H   0  0  0  0  0  0
   -1.0718   -1.2518    2.3079 H   0  0  0  0  0  0
   -3.0715    2.4281    3.3489 H   0  0  0  0  0  0
    3.2024    4.2764   -5.1481 H   0  0  0  0  0  0
    1.6471    3.3899   -1.2297 H   0  0  0  0  0  0
    3.8318   -1.2668    3.6794 H   0  0  0  0  0  0
    4.2064   -2.5668    2.5590 H   0  0  0  0  0  0
    2.5480   -2.2695    3.0452 H   0  0  0  0  0  0
    3.2200    1.3311    1.9736 H   0  0  0  0  0  0
    4.5883    0.8466    0.9831 H   0  0  0  0  0  0
    4.6103    0.5602    2.7104 H   0  0  0  0  0  0
   -0.7933    4.4531   -5.7217 H   0  0  0  0  0  0
   -0.8061    2.7339   -5.3476 H   0  0  0  0  0  0
   -0.1398    3.8954   -4.1933 H   0  0  0  0  0  0
   -0.0808   -1.3291    4.5597 H   0  0  0  0  0  0
   -2.0643    2.3149    5.5943 H   0  0  0  0  0  0
    2.9760    6.6872   -4.6766 H   0  0  0  0  0  0
    1.4309    5.7905   -0.7788 H   0  0  0  0  0  0
   -0.5817    0.4418    6.1994 H   0  0  0  0  0  0
    2.0907    7.4396   -2.4965 H   0  0  0  0  0  0
  1  2  1  0  0  0
  1  5  1  0  0  0
  1  9  2  0  0  0
  2  4  1  0  0  0
  2 10  1  0  0  0
  2 35  1  0  0  0
  3  4  1  0  0  0
  3  7  1  0  0  0
  3 11  2  0  0  0
  4 36  1  0  0  0
  5 13  2  0  0  0
  5 16  1  0  0  0
  6  8  1  0  0  0
  6 12  2  0  0  0
  6 14  1  0  0  0
  7  8  1  0  0  0
  7 15  1  0  0  0
  7 37  1  0  0  0
  8 38  1  0  0  0
 10 18  1  0  0  0
 10 39  1  0  0  0
 10 40  1  0  0  0
 14 17  1  0  0  0
 15 20  1  0  0  0
 15 41  1  0  0  0
 15 42  1  0  0  0
 16 21  1  0  0  0
 16 43  1  0  0  0
 17 19  1  0  0  0
 17 44  1  0  0  0
 17 45  1  0  0  0
 18 22  2  0  0  0
 18 23  1  0  0  0
 19 24  2  0  0  0
 19 25  1  0  0  0
 20 26  1  0  0  0
 20 27  1  0  0  0
 20 46  1  0  0  0
 21 28  1  0  0  0
 21 47  1  0  0  0
 21 48  1  0  0  0
 22 29  1  0  0  0
 22 49  1  0  0  0
 23 30  2  0  0  0
 23 50  1  0  0  0
 24 31  1  0  0  0
 24 51  1  0  0  0
 25 32  2  0  0  0
 25 52  1  0  0  0
 26 53  1  0  0  0
 26 54  1  0  0  0
 26 55  1  0  0  0
 27 56  1  0  0  0
 27 57  1  0  0  0
 27 58  1  0  0  0
 28 59  1  0  0  0
 28 60  1  0  0  0
 28 61  1  0  0  0
 29 33  2  0  0  0
 29 62  1  0  0  0
 30 33  1  0  0  0
 30 63  1  0  0  0
 31 34  2  0  0  0
 31 64  1  0  0  0
 32 34  1  0  0  0
 32 65  1  0  0  0
 33 66  1  0  0  0
 34 67  1  0  0  0
M  END
> <chembl_id>
CHEMBL420872

> <chembl_pref_name>
None

> <s_m_source_file>
sdf/inactives_sanitized.sdf

> <i_m_source_file_index>
79

> <i_lp_mmshare_version>
49012

> <i_m_ct_stereo_status>
1

> <i_f3d_flags>
0

> <s_epik_input>
W2NIXTFbY0hdW2NIXVtjSF1bY0hdYzFbQ0gyXVtDQEhdKEMoPU8pQyg9TylbTkhdW0NIMl1bQ0gzXSlbTkhdQyg9TylbQ0BASF0oW0NIMl1bQ0hdKFtDSDNdKVtDSDNdKVtOSF1DKD1PKU9bQ0gyXWMyW2NIXVtjSF1bY0hdW2NIXVtjSF0y

> <s_epik_cmdline>
J2VwaWtfcHl0aG9uJywgJy1waHQnLCAnMC41JywgJy1waCcsICc3LjUnLCAnLW50JywgJy1tYScsICcyMDAnLCAnLWltYWUnLCAnPGluZmlsZS5tYWU+JywgJy1vbWFlJywgJzxvdXRmaWxlLm1hZT4n

> <r_lp_tautomer_probability>
1

> <r_epik_Ionization_Penalty>
  0.0000

> <r_epik_Ionization_Penalty_Charging>
  0.0000

> <r_epik_Ionization_Penalty_Neutral>
  0.0000

> <r_epik_State_Penalty>
 -0.0000

> <r_epik_Charging_Adjusted_Penalty>
0

> <i_epik_Tot_Q>
0

> <i_epik_Tot_abs_Q>
0

> <s_epik_Chemistry_Notes>
This compound has an ester and may undergo hydrolysis at high or low pH.

> <s_lp_Force_Field>
OPLS3e

> <r_lp_Energy>
29.442239

> <b_lp_Chiralities_Consistent>
1

> <s_lp_Variant>
sdf/inactives_sanitized.sdf:79-1

$$$$
sdf/inactives_sanitized.sdf:80
                    3D
 Schrodinger Suite 2020-1.
 41 42  0  0  1  0            999 V2000
   -0.1921    0.0535   -0.2911 N   0  0  0  0  0  0
    1.2824    0.0570   -0.2450 C   0  0  2  0  0  0
    1.8030   -0.6712   -1.5028 C   0  0  0  0  0  0
    2.7511   -0.0333   -2.2096 N   0  0  0  0  0  0
    1.3891   -1.7990   -1.7799 O   0  0  0  0  0  0
    1.8238   -0.5912    1.0229 C   0  0  0  0  0  0
    3.3431   -0.5548   -3.4376 C   0  0  0  0  0  0
    2.3787   -0.6374   -4.5490 C   0  0  0  0  0  0
    1.6217   -0.7017   -5.4218 N   0  0  0  0  0  0
   -0.9306    1.1354    0.1728 C   0  0  0  0  0  0
   -2.2399    0.8365    0.0750 O   0  0  0  0  0  0
   -0.4816    2.1970    0.6133 O   0  0  0  0  0  0
   -3.2345    1.7724    0.4782 C   0  0  0  0  0  0
   -4.6228    1.1884    0.2687 C   0  0  0  0  0  0
   -5.5467    1.2097    1.3166 C   0  0  0  0  0  0
   -6.8227    0.6842    1.1295 C   0  0  0  0  0  0
   -7.1716    0.1413   -0.1055 C   0  0  0  0  0  0
   -6.2568    0.1209   -1.1564 C   0  0  0  0  0  0
   -4.9810    0.6472   -0.9700 C   0  0  0  0  0  0
    3.1635   -0.3650    1.3677 C   0  0  0  0  0  0
    3.7075   -0.9313    2.5171 C   0  0  0  0  0  0
    2.9131   -1.7307    3.3337 C   0  0  0  0  0  0
    1.5805   -1.9682    3.0094 C   0  0  0  0  0  0
    1.0373   -1.4014    1.8596 C   0  0  0  0  0  0
   -0.6652   -0.8131   -0.5022 H   0  0  0  0  0  0
    1.6333    1.0930   -0.2736 H   0  0  0  0  0  0
    3.0329    0.8943   -1.9268 H   0  0  0  0  0  0
    4.1553    0.1032   -3.7461 H   0  0  0  0  0  0
    3.7767   -1.5423   -3.2715 H   0  0  0  0  0  0
   -3.0929    2.0274    1.5303 H   0  0  0  0  0  0
   -3.1462    2.6945   -0.0987 H   0  0  0  0  0  0
   -5.2795    1.6311    2.2750 H   0  0  0  0  0  0
   -7.5390    0.6978    1.9378 H   0  0  0  0  0  0
   -8.1613   -0.2666   -0.2498 H   0  0  0  0  0  0
   -6.5356   -0.3004   -2.1111 H   0  0  0  0  0  0
   -4.2734    0.6332   -1.7865 H   0  0  0  0  0  0
    3.7885    0.2552    0.7415 H   0  0  0  0  0  0
    4.7409   -0.7509    2.7739 H   0  0  0  0  0  0
    3.3338   -2.1709    4.2258 H   0  0  0  0  0  0
    0.9701   -2.5909    3.6468 H   0  0  0  0  0  0
    0.0028   -1.6068    1.6279 H   0  0  0  0  0  0
  1  2  1  0  0  0
  1 10  1  0  0  0
  1 25  1  0  0  0
  2  3  1  0  0  0
  2  6  1  0  0  0
  2 26  1  0  0  0
  3  4  1  0  0  0
  3  5  2  0  0  0
  4  7  1  0  0  0
  4 27  1  0  0  0
  6 20  2  0  0  0
  6 24  1  0  0  0
  7  8  1  0  0  0
  7 28  1  0  0  0
  7 29  1  0  0  0
  8  9  3  0  0  0
 10 11  1  0  0  0
 10 12  2  0  0  0
 11 13  1  0  0  0
 13 14  1  0  0  0
 13 30  1  0  0  0
 13 31  1  0  0  0
 14 15  2  0  0  0
 14 19  1  0  0  0
 15 16  1  0  0  0
 15 32  1  0  0  0
 16 17  2  0  0  0
 16 33  1  0  0  0
 17 18  1  0  0  0
 17 34  1  0  0  0
 18 19  2  0  0  0
 18 35  1  0  0  0
 19 36  1  0  0  0
 20 21  1  0  0  0
 20 37  1  0  0  0
 21 22  2  0  0  0
 21 38  1  0  0  0
 22 23  1  0  0  0
 22 39  1  0  0  0
 23 24  2  0  0  0
 23 40  1  0  0  0
 24 41  1  0  0  0
M  END
> <chembl_id>
CHEMBL200775

> <chembl_pref_name>
None

> <i_m_ct_stereo_status>
1

> <s_m_source_file>
sdf/inactives_sanitized.sdf

> <i_m_source_file_index>
80

> <i_lp_mmshare_version>
49012

> <i_f3d_flags>
0

> <s_epik_input>
W2NIXTFbY0hdW2NIXVtjSF1bY0hdYzFbQ0BASF0oQyg9TylbTkhdW0NIMl1DI04pW05IXUMoPU8pT1tDSDJdYzJbY0hdW2NIXVtjSF1bY0hdW2NIXTI=

> <s_epik_cmdline>
J2VwaWtfcHl0aG9uJywgJy1waHQnLCAnMC41JywgJy1waCcsICc3LjUnLCAnLW50JywgJy1tYScsICcyMDAnLCAnLWltYWUnLCAnPGluZmlsZS5tYWU+JywgJy1vbWFlJywgJzxvdXRmaWxlLm1hZT4n

> <r_lp_tautomer_probability>
1

> <r_epik_Ionization_Penalty>
  0.0000

> <r_epik_Ionization_Penalty_Charging>
  0.0000

> <r_epik_Ionization_Penalty_Neutral>
  0.0000

> <r_epik_State_Penalty>
 -0.0000

> <r_epik_Charging_Adjusted_Penalty>
0

> <i_epik_Tot_Q>
0

> <i_epik_Tot_abs_Q>
0

> <s_epik_Chemistry_Notes>
This compound has an ester and may undergo hydrolysis at high or low pH.

> <s_lp_Force_Field>
OPLS3e

> <r_lp_Energy>
33.371239

> <b_lp_Chiralities_Consistent>
1

> <s_lp_Variant>
sdf/inactives_sanitized.sdf:80-1

$$$$
sdf/inactives_sanitized.sdf:81
                    3D
 Schrodinger Suite 2020-1.
 40 41  0  0  1  0            999 V2000
   -2.0650   -0.8043    1.2756 C   0  0  0  0  0  0
   -0.5272   -0.6600    1.2967 C   0  0  0  0  0  0
    0.0355    0.1120    0.0559 C   0  0  0  0  0  0
   -0.4557   -0.6744   -1.2081 C   0  0  0  0  0  0
   -1.9919   -0.8104   -1.2754 C   0  0  0  0  0  0
   -2.5514   -1.4927   -0.0133 C   0  0  0  0  0  0
   -0.4140    1.5229    0.0735 N   0  0  0  0  0  0
    1.6012    0.0022    0.1276 C   0  0  0  0  0  0
    2.1921    0.3434    1.2899 N   0  0  0  0  0  0
    2.2706   -0.2246   -0.8834 O   0  0  0  0  0  0
    3.6347    0.4436    1.4934 C   0  0  0  0  0  0
    4.2405    1.5521    0.7347 C   0  0  0  0  0  0
    4.7161    2.4229    0.1397 N   0  0  0  0  0  0
   -0.0603    2.5390   -0.7458 C   0  0  0  0  0  0
   -0.7717    3.8563   -0.5211 C   0  0  0  0  0  0
    0.7772    2.4233   -1.6424 O   0  0  0  0  0  0
   -0.7701    4.8266   -1.5341 C   0  0  0  0  0  0
   -1.4134    6.0469   -1.3470 C   0  0  0  0  0  0
   -2.0633    6.3087   -0.1442 C   0  0  0  0  0  0
   -2.0727    5.3593    0.8740 C   0  0  0  0  0  0
   -1.4284    4.1390    0.6885 C   0  0  0  0  0  0
   -2.9430    7.9771    0.1111 Br  0  0  0  0  0  0
   -2.3967   -1.3727    2.1454 H   0  0  0  0  0  0
   -2.5309    0.1786    1.3608 H   0  0  0  0  0  0
   -0.2975   -0.0985    2.2048 H   0  0  0  0  0  0
   -0.0363   -1.6256    1.4397 H   0  0  0  0  0  0
    0.0348   -1.6453   -1.3068 H   0  0  0  0  0  0
   -0.1645   -0.1262   -2.1061 H   0  0  0  0  0  0
   -2.4461    0.1751   -1.3905 H   0  0  0  0  0  0
   -2.2760   -1.3801   -2.1609 H   0  0  0  0  0  0
   -3.6416   -1.4988   -0.0448 H   0  0  0  0  0  0
   -2.2415   -2.5389   -0.0022 H   0  0  0  0  0  0
   -1.2929    1.6607    0.5502 H   0  0  0  0  0  0
    1.6089    0.6359    2.0602 H   0  0  0  0  0  0
    3.8326    0.6121    2.5518 H   0  0  0  0  0  0
    4.1318   -0.4880    1.2182 H   0  0  0  0  0  0
   -0.2731    4.6444   -2.4769 H   0  0  0  0  0  0
   -1.4065    6.7866   -2.1341 H   0  0  0  0  0  0
   -2.5759    5.5679    1.8066 H   0  0  0  0  0  0
   -1.4446    3.4246    1.4992 H   0  0  0  0  0  0
  1  2  1  0  0  0
  1  6  1  0  0  0
  1 23  1  0  0  0
  1 24  1  0  0  0
  2  3  1  0  0  0
  2 25  1  0  0  0
  2 26  1  0  0  0
  3  7  1  0  0  0
  3  8  1  0  0  0
  3  4  1  0  0  0
  4  5  1  0  0  0
  4 27  1  0  0  0
  4 28  1  0  0  0
  5  6  1  0  0  0
  5 29  1  0  0  0
  5 30  1  0  0  0
  6 31  1  0  0  0
  6 32  1  0  0  0
  7 14  1  0  0  0
  7 33  1  0  0  0
  8  9  1  0  0  0
  8 10  2  0  0  0
  9 11  1  0  0  0
  9 34  1  0  0  0
 11 12  1  0  0  0
 11 35  1  0  0  0
 11 36  1  0  0  0
 12 13  3  0  0  0
 14 15  1  0  0  0
 14 16  2  0  0  0
 15 17  2  0  0  0
 15 21  1  0  0  0
 17 18  1  0  0  0
 17 37  1  0  0  0
 18 19  2  0  0  0
 18 38  1  0  0  0
 19 20  1  0  0  0
 19 22  1  0  0  0
 20 21  2  0  0  0
 20 39  1  0  0  0
 21 40  1  0  0  0
M  END
> <chembl_id>
CHEMBL370786

> <chembl_pref_name>
None

> <s_m_source_file>
sdf/inactives_sanitized.sdf

> <i_m_source_file_index>
81

> <i_lp_mmshare_version>
49012

> <i_m_ct_stereo_status>
1

> <i_f3d_flags>
0

> <s_epik_input>
W0NIMl0xW0NIMl1bQ0gyXVtDSDJdW0NIMl1DMShDKD1PKVtOSF1bQ0gyXUMjTilbTkhdQyg9TyljMltjSF1bY0hdYyhCcilbY0hdW2NIXTI=

> <s_epik_cmdline>
J2VwaWtfcHl0aG9uJywgJy1waHQnLCAnMC41JywgJy1waCcsICc3LjUnLCAnLW50JywgJy1tYScsICcyMDAnLCAnLWltYWUnLCAnPGluZmlsZS5tYWU+JywgJy1vbWFlJywgJzxvdXRmaWxlLm1hZT4n

> <r_lp_tautomer_probability>
1

> <r_epik_Ionization_Penalty>
  0.0000

> <r_epik_Ionization_Penalty_Charging>
  0.0000

> <r_epik_Ionization_Penalty_Neutral>
  0.0000

> <r_epik_State_Penalty>
 -0.0000

> <r_epik_Charging_Adjusted_Penalty>
0

> <i_epik_Tot_Q>
0

> <i_epik_Tot_abs_Q>
0

> <s_lp_Force_Field>
OPLS3e

> <r_lp_Energy>
34.268002

> <b_lp_Chiralities_Consistent>
1

> <s_lp_Variant>
sdf/inactives_sanitized.sdf:81-1

$$$$
sdf/inactives_sanitized.sdf:82
                    3D
 Schrodinger Suite 2020-1.
 59 60  0  0  1  0            999 V2000
   -0.0144   -0.2225    0.2403 C   0  0  0  0  0  0
   -0.3695   -0.8872    1.6146 C   0  0  0  0  0  0
   -0.6461   -1.0738   -0.9138 C   0  0  0  0  0  0
   -3.3559    7.4716    0.6171 C   0  0  0  0  0  0
   -3.3439    6.0972    0.8403 C   0  0  0  0  0  0
   -2.1496    5.4567    1.1821 C   0  0  0  0  0  0
   -0.9680    6.1939    1.3005 C   0  0  0  0  0  0
   -0.9801    7.5677    1.0751 C   0  0  0  0  0  0
   -2.1740    8.2002    0.7346 C   0  0  0  0  0  0
   -2.1327    3.9527    1.4129 C   0  0  0  0  0  0
   -1.9194    3.1649    0.1051 C   0  0  0  0  0  0
   -1.7386    1.6637    0.3474 C   0  0  0  0  0  0
   -0.5004    1.1763    0.1376 N   0  0  0  0  0  0
   -2.6992    0.9819    0.7029 O   0  0  0  0  0  0
    1.5479   -0.1710    0.1075 C   0  0  0  0  0  0
    2.2047    0.9684    0.4280 N   0  0  0  0  0  0
    2.1583   -1.1792   -0.2537 O   0  0  0  0  0  0
    3.6531    1.2243    0.3892 C   0  0  2  0  0  0
    4.3156    0.4256    1.5035 C   0  0  0  0  0  0
    5.2350    0.8572    2.1989 O   0  0  0  0  0  0
    3.9327    2.7475    0.4953 C   0  0  0  0  0  0
    3.2834    3.6035   -0.5815 C   0  0  0  0  0  0
    3.8736    3.7030   -1.8592 C   0  0  0  0  0  0
    3.2328    4.4122   -2.8668 C   0  0  0  0  0  0
    1.9982    5.0037   -2.6306 C   0  0  0  0  0  0
    1.3864    4.8809   -1.3896 C   0  0  0  0  0  0
    2.0087    4.1726   -0.3700 C   0  0  0  0  0  0
   -0.3669   -0.5991   -2.3559 C   0  0  0  0  0  0
    0.0959   -0.1474    2.8873 C   0  0  0  0  0  0
   -1.4492   -1.0203    1.6879 H   0  0  0  0  0  0
    0.0249   -1.9050    1.6414 H   0  0  0  0  0  0
   -0.3318   -2.1150   -0.8208 H   0  0  0  0  0  0
   -1.7288   -1.1055   -0.7831 H   0  0  0  0  0  0
   -4.2768    7.9702    0.3530 H   0  0  0  0  0  0
   -4.2599    5.5324    0.7445 H   0  0  0  0  0  0
   -0.0409    5.7053    1.5626 H   0  0  0  0  0  0
   -0.0686    8.1401    1.1639 H   0  0  0  0  0  0
   -2.1832    9.2661    0.5599 H   0  0  0  0  0  0
   -1.3514    3.7175    2.1390 H   0  0  0  0  0  0
   -3.0723    3.6594    1.8855 H   0  0  0  0  0  0
   -2.7662    3.3127   -0.5666 H   0  0  0  0  0  0
   -1.0540    3.5621   -0.4273 H   0  0  0  0  0  0
    0.1743    1.8229   -0.2443 H   0  0  0  0  0  0
    1.6522    1.7534    0.7411 H   0  0  0  0  0  0
    4.0238    0.8791   -0.5780 H   0  0  0  0  0  0
    3.9405   -0.5889    1.6397 H   0  0  0  0  0  0
    3.5983    3.1249    1.4639 H   0  0  0  0  0  0
    5.0082    2.9301    0.4569 H   0  0  0  0  0  0
    4.8254    3.2317   -2.0564 H   0  0  0  0  0  0
    3.6932    4.4983   -3.8400 H   0  0  0  0  0  0
    1.5058    5.5526   -3.4199 H   0  0  0  0  0  0
    0.4197    5.3321   -1.2209 H   0  0  0  0  0  0
    1.5158    4.0643    0.5851 H   0  0  0  0  0  0
   -0.8767   -1.2392   -3.0763 H   0  0  0  0  0  0
    0.6961   -0.6249   -2.5953 H   0  0  0  0  0  0
   -0.7214    0.4191   -2.5180 H   0  0  0  0  0  0
   -0.2456   -0.6699    3.7811 H   0  0  0  0  0  0
   -0.3021    0.8665    2.9315 H   0  0  0  0  0  0
    1.1825   -0.0845    2.9462 H   0  0  0  0  0  0
  1 15  1  0  0  0
  1  3  1  0  0  0
  1  2  1  0  0  0
  1 13  1  0  0  0
  2 29  1  0  0  0
  2 30  1  0  0  0
  2 31  1  0  0  0
  3 28  1  0  0  0
  3 32  1  0  0  0
  3 33  1  0  0  0
  4  5  2  0  0  0
  4  9  1  0  0  0
  4 34  1  0  0  0
  5  6  1  0  0  0
  5 35  1  0  0  0
  6 10  1  0  0  0
  6  7  2  0  0  0
  7  8  1  0  0  0
  7 36  1  0  0  0
  8  9  2  0  0  0
  8 37  1  0  0  0
  9 38  1  0  0  0
 10 11  1  0  0  0
 10 39  1  0  0  0
 10 40  1  0  0  0
 11 12  1  0  0  0
 11 41  1  0  0  0
 11 42  1  0  0  0
 12 13  1  0  0  0
 12 14  2  0  0  0
 13 43  1  0  0  0
 15 16  1  0  0  0
 15 17  2  0  0  0
 16 18  1  0  0  0
 16 44  1  0  0  0
 18 19  1  0  0  0
 18 21  1  0  0  0
 18 45  1  0  0  0
 19 20  2  0  0  0
 19 46  1  0  0  0
 21 22  1  0  0  0
 21 47  1  0  0  0
 21 48  1  0  0  0
 22 23  2  0  0  0
 22 27  1  0  0  0
 23 24  1  0  0  0
 23 49  1  0  0  0
 24 25  2  0  0  0
 24 50  1  0  0  0
 25 26  1  0  0  0
 25 51  1  0  0  0
 26 27  2  0  0  0
 26 52  1  0  0  0
 27 53  1  0  0  0
 28 54  1  0  0  0
 28 55  1  0  0  0
 28 56  1  0  0  0
 29 57  1  0  0  0
 29 58  1  0  0  0
 29 59  1  0  0  0
M  END
> <chembl_id>
CHEMBL513049

> <chembl_pref_name>
None

> <i_m_ct_stereo_status>
1

> <s_m_source_file>
sdf/inactives_sanitized.sdf

> <i_m_source_file_index>
82

> <i_lp_mmshare_version>
49012

> <i_f3d_flags>
0

> <s_epik_input>
W2NIXTFbY0hdW2NIXVtjSF1bY0hdYzFbQ0gyXVtDQEBIXShbQ0hdPU8pW05IXUMoPU8pQyhbQ0gyXVtDSDNdKShbQ0gyXVtDSDNdKVtOSF1DKD1PKVtDSDJdW0NIMl1jMltjSF1bY0hdW2NIXVtjSF1bY0hdMg==

> <s_epik_cmdline>
J2VwaWtfcHl0aG9uJywgJy1waHQnLCAnMC41JywgJy1waCcsICc3LjUnLCAnLW50JywgJy1tYScsICcyMDAnLCAnLWltYWUnLCAnPGluZmlsZS5tYWU+JywgJy1vbWFlJywgJzxvdXRmaWxlLm1hZT4n

> <r_lp_tautomer_probability>
1

> <r_epik_Ionization_Penalty>
  0.0023

> <r_epik_Ionization_Penalty_Charging>
  0.0000

> <r_epik_Ionization_Penalty_Neutral>
  0.0023

> <r_epik_State_Penalty>
 -0.0000

> <r_epik_Charging_Adjusted_Penalty>
0

> <i_epik_Tot_Q>
0

> <i_epik_Tot_abs_Q>
0

> <s_lp_Force_Field>
OPLS3e

> <r_lp_Energy>
39.865627

> <b_lp_Chiralities_Consistent>
1

> <s_lp_Variant>
sdf/inactives_sanitized.sdf:82-1

$$$$
sdf/inactives_sanitized.sdf:83
                    3D
 Schrodinger Suite 2020-1.
 39 39  0  0  1  0            999 V2000
    1.9412    1.5722    2.0942 C   0  0  0  0  0  0
    1.6836    1.8675    3.1836 N   0  0  0  0  0  0
    0.0228    0.1143    0.2531 C   0  0  0  0  0  0
    2.2353    1.1689    0.8408 N   0  0  2  0  0  0
   -0.5713   -1.0747    0.0038 O   0  0  0  0  0  0
   -0.5563    1.1971    0.3752 O   0  0  0  0  0  0
    1.5502   -0.0315    0.3555 C   0  0  0  0  0  0
   -1.9885   -1.1965   -0.1336 C   0  0  2  0  0  0
   -2.3981   -2.6479    0.2047 C   0  0  0  0  0  0
   -1.9696   -3.1518    1.6070 C   0  0  0  0  0  0
    3.6487    1.2284    0.5003 C   0  0  0  0  0  0
   -2.4245   -0.7969   -1.5574 C   0  0  0  0  0  0
   -2.3776   -4.6293    1.8143 C   0  0  0  0  0  0
   -2.5622   -2.3089    2.7634 C   0  0  0  0  0  0
   -1.8717   -5.1723    3.1663 C   0  0  0  0  0  0
   -2.0611   -2.8040    4.1356 C   0  0  0  0  0  0
   -2.3620   -4.3038    4.3448 C   0  0  0  0  0  0
    1.7959   -0.8790    0.9970 H   0  0  0  0  0  0
    1.9193   -0.2535   -0.6467 H   0  0  0  0  0  0
   -2.4863   -0.5313    0.5739 H   0  0  0  0  0  0
   -3.4815   -2.7392    0.1112 H   0  0  0  0  0  0
   -1.9758   -3.3143   -0.5496 H   0  0  0  0  0  0
   -0.8813   -3.1015    1.6804 H   0  0  0  0  0  0
    4.0401    2.2312    0.6759 H   0  0  0  0  0  0
    3.8125    0.9879   -0.5509 H   0  0  0  0  0  0
    4.2220    0.5264    1.1071 H   0  0  0  0  0  0
   -3.5021   -0.9057   -1.6825 H   0  0  0  0  0  0
   -1.9374   -1.4160   -2.3116 H   0  0  0  0  0  0
   -2.1779    0.2432   -1.7722 H   0  0  0  0  0  0
   -3.4610   -4.7357    1.7361 H   0  0  0  0  0  0
   -1.9800   -5.2402    1.0027 H   0  0  0  0  0  0
   -2.2993   -1.2580    2.6430 H   0  0  0  0  0  0
   -3.6525   -2.3291    2.7212 H   0  0  0  0  0  0
   -2.2027   -6.2026    3.3015 H   0  0  0  0  0  0
   -0.7809   -5.2003    3.1628 H   0  0  0  0  0  0
   -0.9860   -2.6343    4.2124 H   0  0  0  0  0  0
   -2.5193   -2.2183    4.9333 H   0  0  0  0  0  0
   -1.9084   -4.6482    5.2748 H   0  0  0  0  0  0
   -3.4380   -4.4389    4.4654 H   0  0  0  0  0  0
  1  2  3  0  0  0
  1  4  1  0  0  0
  3  7  1  0  0  0
  3  5  1  0  0  0
  3  6  2  0  0  0
  4  7  1  0  0  0
  4 11  1  0  0  0
  5  8  1  0  0  0
  7 18  1  0  0  0
  7 19  1  0  0  0
  8  9  1  0  0  0
  8 12  1  0  0  0
  8 20  1  0  0  0
  9 10  1  0  0  0
  9 21  1  0  0  0
  9 22  1  0  0  0
 10 13  1  0  0  0
 10 14  1  0  0  0
 10 23  1  0  0  0
 11 24  1  0  0  0
 11 25  1  0  0  0
 11 26  1  0  0  0
 12 27  1  0  0  0
 12 28  1  0  0  0
 12 29  1  0  0  0
 13 15  1  0  0  0
 13 30  1  0  0  0
 13 31  1  0  0  0
 14 16  1  0  0  0
 14 32  1  0  0  0
 14 33  1  0  0  0
 15 17  1  0  0  0
 15 34  1  0  0  0
 15 35  1  0  0  0
 16 17  1  0  0  0
 16 36  1  0  0  0
 16 37  1  0  0  0
 17 38  1  0  0  0
 17 39  1  0  0  0
M  END
> <chembl_id>
CHEMBL189149

> <chembl_pref_name>
None

> <i_m_ct_stereo_status>
1

> <s_m_source_file>
sdf/inactives_sanitized.sdf

> <i_m_source_file_index>
83

> <i_lp_mmshare_version>
49012

> <i_f3d_flags>
0

> <s_epik_input>
TiNDTihbQ0gzXSlbQ0gyXUMoPU8pT1tDQEBIXShbQ0gzXSlbQ0gyXVtDSF0xW0NIMl1bQ0gyXVtDSDJdW0NIMl1bQ0gyXTE=

> <s_epik_cmdline>
J2VwaWtfcHl0aG9uJywgJy1waHQnLCAnMC41JywgJy1waCcsICc3LjUnLCAnLW50JywgJy1tYScsICcyMDAnLCAnLWltYWUnLCAnPGluZmlsZS5tYWU+JywgJy1vbWFlJywgJzxvdXRmaWxlLm1hZT4n

> <r_lp_tautomer_probability>
1

> <r_epik_Ionization_Penalty>
  0.0000

> <r_epik_Ionization_Penalty_Charging>
  0.0000

> <r_epik_Ionization_Penalty_Neutral>
  0.0000

> <r_epik_State_Penalty>
 -0.0000

> <r_epik_Charging_Adjusted_Penalty>
0

> <i_epik_Tot_Q>
0

> <i_epik_Tot_abs_Q>
0

> <s_epik_Chemistry_Notes>
This compound has an ester and may undergo hydrolysis at high or low pH.

> <s_lp_Force_Field>
OPLS3e

> <r_lp_Energy>
15.762776

> <b_lp_Chiralities_Consistent>
1

> <s_lp_Variant>
sdf/inactives_sanitized.sdf:83-1

$$$$
sdf/inactives_sanitized.sdf:84
                    3D
 Schrodinger Suite 2020-1.
102106  0  0  1  0            999 V2000
   -0.3686    1.5058    0.2256 N   0  0  0  0  0  0
   -0.0598    0.0667    0.3424 C   0  0  1  0  0  0
   -0.7787   -0.5798   -0.8654 C   0  0  2  0  0  0
   -1.1501    0.5704   -1.8111 C   0  0  2  0  0  0
   -0.6128    1.8621   -1.1767 C   0  0  0  0  0  0
   -2.6843    0.5312   -1.9496 C   0  0  0  0  0  0
   -3.0685   -0.9062   -1.6081 C   0  0  0  0  0  0
   -2.1009   -1.2757   -0.4878 C   0  0  0  0  0  0
    1.4655   -0.2057    0.4415 C   0  0  0  0  0  0
    2.0033   -1.0767   -0.2437 O   0  0  0  0  0  0
    2.1596    0.5322    1.3322 N   0  0  0  0  0  0
    5.0447   -1.6905    2.4168 C   0  0  0  0  0  0
    3.7167   -0.8401    2.5945 C   0  0  0  0  0  0
    3.5832    0.3848    1.6785 C   0  0  2  0  0  0
    4.0990    1.6783    2.3628 C   0  0  0  0  0  0
    5.6089    1.7234    2.6762 C   0  0  0  0  0  0
    6.0587    3.0849    3.2231 C   0  0  0  0  0  0
    2.8555   -1.1838    3.4130 O   0  0  0  0  0  0
    5.9096   -1.3798    1.5958 O   0  0  0  0  0  0
    5.0886   -2.7511    3.2439 N   0  0  0  0  0  0
    6.2293   -3.6517    3.3660 C   0  0  0  0  0  0
    6.6219   -4.5147    2.1849 C   0  0  0  0  0  0
    5.9712   -5.1402    3.3953 C   0  0  0  0  0  0
   -0.6581    2.2798    1.3074 C   0  0  0  0  0  0
   -1.0186    3.7840    1.1250 C   0  0  2  0  0  0
   -0.0970    4.7997    1.9095 C   0  0  0  0  0  0
   -0.4100    6.2351    1.4092 C   0  0  0  0  0  0
   -0.5938    1.8428    2.4590 O   0  0  0  0  0  0
    1.4063    4.5374    1.6302 C   0  0  0  0  0  0
   -0.3275    4.7955    3.4468 C   0  0  0  0  0  0
   -2.4286    3.9263    1.4982 N   0  0  0  0  0  0
   -3.4637    3.9931    0.6464 C   0  0  0  0  0  0
   -3.3606    3.9844   -0.5813 O   0  0  0  0  0  0
   -4.8652    4.0420    1.2960 C   0  0  1  0  0  0
   -5.5109    5.3232    0.9838 N   0  0  0  0  0  0
   -5.1630    6.5285    1.4775 C   0  0  0  0  0  0
   -4.2508    6.6891    2.2923 O   0  0  0  0  0  0
   -5.9711    7.7003    0.9772 C   0  0  0  0  0  0
   -6.6021    7.6983   -0.2793 C   0  0  0  0  0  0
   -6.0518    8.7949    1.7878 N   0  0  0  0  0  0
   -7.3158    8.7665   -0.7229 N   0  0  0  0  0  0
   -7.3936    9.8471    0.0962 C   0  0  0  0  0  0
   -6.7646    9.8624    1.3427 C   0  0  0  0  0  0
   -5.7471    2.8131    0.9059 C   0  0  0  0  0  0
   -7.1751    2.8698    1.5037 C   0  0  0  0  0  0
   -8.0579    1.7887    0.8447 C   0  0  0  0  0  0
   -7.4474    0.3771    1.0380 C   0  0  0  0  0  0
   -5.9421    0.3074    0.6766 C   0  0  0  0  0  0
   -5.1591    1.4505    1.3550 C   0  0  0  0  0  0
   -0.4166   -0.3460    1.2877 H   0  0  0  0  0  0
   -0.1568   -1.3038   -1.3948 H   0  0  0  0  0  0
   -0.6843    0.4206   -2.7869 H   0  0  0  0  0  0
    0.3490    2.0659   -1.6492 H   0  0  0  0  0  0
   -1.2867    2.6918   -1.3815 H   0  0  0  0  0  0
   -3.0097    0.8007   -2.9550 H   0  0  0  0  0  0
   -3.1640    1.2246   -1.2566 H   0  0  0  0  0  0
   -4.1113   -1.0036   -1.3084 H   0  0  0  0  0  0
   -2.9111   -1.5544   -2.4720 H   0  0  0  0  0  0
   -2.4834   -0.9164    0.4697 H   0  0  0  0  0  0
   -1.9833   -2.3570   -0.4057 H   0  0  0  0  0  0
    1.6556    1.2177    1.8773 H   0  0  0  0  0  0
    4.1258    0.2554    0.7391 H   0  0  0  0  0  0
    3.8683    2.5187    1.7059 H   0  0  0  0  0  0
    3.5311    1.8644    3.2771 H   0  0  0  0  0  0
    5.8637    0.9565    3.4081 H   0  0  0  0  0  0
    6.1782    1.4966    1.7738 H   0  0  0  0  0  0
    7.1283    3.0856    3.4351 H   0  0  0  0  0  0
    5.5379    3.3300    4.1493 H   0  0  0  0  0  0
    5.8627    3.8839    2.5072 H   0  0  0  0  0  0
    4.3418   -2.8685    3.9136 H   0  0  0  0  0  0
    7.0322   -3.2544    3.9887 H   0  0  0  0  0  0
    6.0511   -4.4310    1.2594 H   0  0  0  0  0  0
    7.6830   -4.6846    2.0020 H   0  0  0  0  0  0
    4.9431   -5.4963    3.3197 H   0  0  0  0  0  0
    6.5735   -5.7542    4.0649 H   0  0  0  0  0  0
   -0.8998    4.0570    0.0784 H   0  0  0  0  0  0
    0.1997    6.9812    1.9212 H   0  0  0  0  0  0
   -1.4518    6.5096    1.5798 H   0  0  0  0  0  0
   -0.2114    6.3441    0.3420 H   0  0  0  0  0  0
    1.6388    4.6172    0.5674 H   0  0  0  0  0  0
    1.7171    3.5491    1.9674 H   0  0  0  0  0  0
    2.0419    5.2547    2.1515 H   0  0  0  0  0  0
    0.3298    5.5096    3.9454 H   0  0  0  0  0  0
   -0.1220    3.8275    3.9011 H   0  0  0  0  0  0
   -1.3475    5.0800    3.7088 H   0  0  0  0  0  0
   -2.6121    3.9383    2.4912 H   0  0  0  0  0  0
   -4.7515    4.0137    2.3828 H   0  0  0  0  0  0
   -6.2723    5.2713    0.3237 H   0  0  0  0  0  0
   -6.5425    6.8552   -0.9523 H   0  0  0  0  0  0
   -7.9606   10.6954   -0.2579 H   0  0  0  0  0  0
   -6.8234   10.7229    1.9926 H   0  0  0  0  0  0
   -5.8305    2.8333   -0.1840 H   0  0  0  0  0  0
   -7.1537    2.7976    2.5924 H   0  0  0  0  0  0
   -7.6297    3.8411    1.3080 H   0  0  0  0  0  0
   -9.0642    1.8195    1.2640 H   0  0  0  0  0  0
   -8.1643    1.9989   -0.2208 H   0  0  0  0  0  0
   -7.5717    0.0804    2.0806 H   0  0  0  0  0  0
   -8.0054   -0.3530    0.4504 H   0  0  0  0  0  0
   -5.5298   -0.6581    0.9717 H   0  0  0  0  0  0
   -5.8254    0.3741   -0.4059 H   0  0  0  0  0  0
   -5.1325    1.3642    2.4426 H   0  0  0  0  0  0
   -4.1144    1.3670    1.0542 H   0  0  0  0  0  0
  1  2  1  0  0  0
  1  5  1  0  0  0
  1 24  1  0  0  0
  2  3  1  0  0  0
  2  9  1  0  0  0
  2 50  1  0  0  0
  3  4  1  0  0  0
  3  8  1  0  0  0
  3 51  1  0  0  0
  4  5  1  0  0  0
  4  6  1  0  0  0
  4 52  1  0  0  0
  5 53  1  0  0  0
  5 54  1  0  0  0
  6  7  1  0  0  0
  6 55  1  0  0  0
  6 56  1  0  0  0
  7  8  1  0  0  0
  7 57  1  0  0  0
  7 58  1  0  0  0
  8 59  1  0  0  0
  8 60  1  0  0  0
  9 10  2  0  0  0
  9 11  1  0  0  0
 11 14  1  0  0  0
 11 61  1  0  0  0
 12 13  1  0  0  0
 12 19  2  0  0  0
 12 20  1  0  0  0
 13 14  1  0  0  0
 13 18  2  0  0  0
 14 15  1  0  0  0
 14 62  1  0  0  0
 15 16  1  0  0  0
 15 63  1  0  0  0
 15 64  1  0  0  0
 16 17  1  0  0  0
 16 65  1  0  0  0
 16 66  1  0  0  0
 17 67  1  0  0  0
 17 68  1  0  0  0
 17 69  1  0  0  0
 20 21  1  0  0  0
 20 70  1  0  0  0
 21 22  1  0  0  0
 21 23  1  0  0  0
 21 71  1  0  0  0
 22 23  1  0  0  0
 22 72  1  0  0  0
 22 73  1  0  0  0
 23 74  1  0  0  0
 23 75  1  0  0  0
 24 25  1  0  0  0
 24 28  2  0  0  0
 25 26  1  0  0  0
 25 31  1  0  0  0
 25 76  1  0  0  0
 26 27  1  0  0  0
 26 29  1  0  0  0
 26 30  1  0  0  0
 27 77  1  0  0  0
 27 78  1  0  0  0
 27 79  1  0  0  0
 29 80  1  0  0  0
 29 81  1  0  0  0
 29 82  1  0  0  0
 30 83  1  0  0  0
 30 84  1  0  0  0
 30 85  1  0  0  0
 31 32  1  0  0  0
 31 86  1  0  0  0
 32 33  2  0  0  0
 32 34  1  0  0  0
 34 35  1  0  0  0
 34 44  1  0  0  0
 34 87  1  0  0  0
 35 36  1  0  0  0
 35 88  1  0  0  0
 36 37  2  0  0  0
 36 38  1  0  0  0
 38 39  2  0  0  0
 38 40  1  0  0  0
 39 41  1  0  0  0
 39 89  1  0  0  0
 40 43  2  0  0  0
 41 42  2  0  0  0
 42 43  1  0  0  0
 42 90  1  0  0  0
 43 91  1  0  0  0
 44 45  1  0  0  0
 44 49  1  0  0  0
 44 92  1  0  0  0
 45 46  1  0  0  0
 45 93  1  0  0  0
 45 94  1  0  0  0
 46 47  1  0  0  0
 46 95  1  0  0  0
 46 96  1  0  0  0
 47 48  1  0  0  0
 47 97  1  0  0  0
 47 98  1  0  0  0
 48 49  1  0  0  0
 48 99  1  0  0  0
 48100  1  0  0  0
 49101  1  0  0  0
 49102  1  0  0  0
M  END
> <chembl_id>
CHEMBL443336

> <chembl_pref_name>
None

> <i_m_ct_stereo_status>
1

> <s_m_source_file>
sdf/inactives_sanitized.sdf

> <i_m_source_file_index>
84

> <i_lp_mmshare_version>
49012

> <i_f3d_flags>
0

> <s_epik_input>
W0NIMl0xW0NIMl1bQ0hdMVtOSF1DKD1PKUMoPU8pW0NASF0oW0NIMl1bQ0gyXVtDSDNdKVtOSF1DKD1PKVtDQEhdMk4oW0NIMl1bQ0BASF0oW0NAQEhdMjMpW0NIMl1bQ0gyXVtDSDJdMylDKD1PKVtDQEhdKEMoW0NIM10pKFtDSDNdKVtDSDNdKVtOSF1DKD1PKVtDQEhdKFtDSF00W0NIMl1bQ0gyXVtDSDJdW0NIMl1bQ0gyXTQpW05IXUMoPU8pYzVbY0hdbltjSF1bY0hdbjU=

> <s_epik_cmdline>
J2VwaWtfcHl0aG9uJywgJy1waHQnLCAnMC41JywgJy1waCcsICc3LjUnLCAnLW50JywgJy1tYScsICcyMDAnLCAnLWltYWUnLCAnPGluZmlsZS5tYWU+JywgJy1vbWFlJywgJzxvdXRmaWxlLm1hZT4n

> <r_lp_tautomer_probability>
1

> <r_epik_Ionization_Penalty>
  0.0000

> <r_epik_Ionization_Penalty_Charging>
  0.0000

> <r_epik_Ionization_Penalty_Neutral>
  0.0000

> <r_epik_State_Penalty>
 -0.0000

> <r_epik_Charging_Adjusted_Penalty>
0

> <i_epik_Tot_Q>
0

> <i_epik_Tot_abs_Q>
0

> <s_lp_Force_Field>
OPLS3e

> <r_lp_Energy>
54.987025

> <b_lp_Chiralities_Consistent>
1

> <s_lp_Variant>
sdf/inactives_sanitized.sdf:84-1

$$$$
sdf/inactives_sanitized.sdf:85
                    3D
 Schrodinger Suite 2020-1.
 23 22  0  0  1  0            999 V2000
   -2.1147   -1.4981   -3.2462 C   0  0  0  0  0  0
   -1.7888   -0.5846   -2.0573 C   0  0  0  0  0  0
   -0.3444   -0.7466   -1.5572 C   0  0  0  0  0  0
   -0.0346    0.4019   -0.1331 S   0  0  1  0  0  0
    2.1185   -0.1339    0.0212 S   0  0  0  0  0  0
    2.4643    0.7341    1.5766 C   0  0  0  0  0  0
    2.5724    2.2629    1.4584 C   0  0  0  0  0  0
    2.8880    2.9466    2.7955 C   0  0  0  0  0  0
   -0.2104    1.8258   -0.6641 O   0  0  0  0  0  0
   -3.1439   -1.3541   -3.5763 H   0  0  0  0  0  0
   -1.9959   -2.5495   -2.9819 H   0  0  0  0  0  0
   -1.4632   -1.2902   -4.0956 H   0  0  0  0  0  0
   -2.4843   -0.7921   -1.2429 H   0  0  0  0  0  0
   -1.9621    0.4528   -2.3472 H   0  0  0  0  0  0
   -0.1676   -1.7717   -1.2302 H   0  0  0  0  0  0
    0.3602   -0.5168   -2.3573 H   0  0  0  0  0  0
    1.6944    0.4651    2.3009 H   0  0  0  0  0  0
    3.3974    0.3331    1.9736 H   0  0  0  0  0  0
    3.3456    2.5174    0.7322 H   0  0  0  0  0  0
    1.6412    2.6693    1.0631 H   0  0  0  0  0  0
    2.9503    4.0284    2.6737 H   0  0  0  0  0  0
    3.8408    2.6044    3.2008 H   0  0  0  0  0  0
    2.1148    2.7413    3.5368 H   0  0  0  0  0  0
  1  2  1  0  0  0
  1 10  1  0  0  0
  1 11  1  0  0  0
  1 12  1  0  0  0
  2  3  1  0  0  0
  2 13  1  0  0  0
  2 14  1  0  0  0
  3  4  1  0  0  0
  3 15  1  0  0  0
  3 16  1  0  0  0
  4  5  1  0  0  0
  4  9  2  0  0  0
  5  6  1  0  0  0
  6  7  1  0  0  0
  6 17  1  0  0  0
  6 18  1  0  0  0
  7  8  1  0  0  0
  7 19  1  0  0  0
  7 20  1  0  0  0
  8 21  1  0  0  0
  8 22  1  0  0  0
  8 23  1  0  0  0
M  END
> <chembl_id>
CHEMBL1224166

> <chembl_pref_name>
None

> <s_m_source_file>
sdf/inactives_sanitized.sdf

> <i_m_source_file_index>
85

> <i_lp_mmshare_version>
49012

> <i_m_ct_stereo_status>
1

> <i_f3d_flags>
0

> <s_epik_input>
W0NIM11bQ0gyXVtDSDJdW1MrXShbTy1dKVNbQ0gyXVtDSDJdW0NIM10=

> <s_epik_cmdline>
J2VwaWtfcHl0aG9uJywgJy1waHQnLCAnMC41JywgJy1waCcsICc3LjUnLCAnLW50JywgJy1tYScsICcyMDAnLCAnLWltYWUnLCAnPGluZmlsZS5tYWU+JywgJy1vbWFlJywgJzxvdXRmaWxlLm1hZT4n

> <r_lp_tautomer_probability>
1

> <r_epik_Ionization_Penalty>
  0.0000

> <r_epik_Ionization_Penalty_Charging>
  0.0000

> <r_epik_Ionization_Penalty_Neutral>
  0.0000

> <r_epik_State_Penalty>
 -0.0000

> <r_epik_Charging_Adjusted_Penalty>
0

> <i_epik_Tot_Q>
0

> <i_epik_Tot_abs_Q>
2

> <s_lp_Force_Field>
OPLS3e

> <r_lp_Energy>
-2.741679

> <b_lp_Chiralities_Consistent>
1

> <s_lp_Variant>
sdf/inactives_sanitized.sdf:85-1

$$$$
sdf/inactives_sanitized.sdf:86
                    3D
 Schrodinger Suite 2020-1.
 45 46  0  0  1  0            999 V2000
    1.6834   -2.5645    1.2739 O   0  0  0  0  0  0
    2.2361   -1.8625    0.1109 S   0  0  0  0  0  0
    2.0408   -2.4119   -1.2353 O   0  0  0  0  0  0
    0.0202   -0.0133    0.0105 C   0  0  2  0  0  0
   -0.4535    1.4541    0.0831 C   0  0  0  0  0  0
   -1.1116    1.8148    1.1970 N   0  0  0  0  0  0
   -0.1904    2.2280   -0.8389 O   0  0  0  0  0  0
   -1.5621    3.1750    1.4721 C   0  0  0  0  0  0
   -0.4459    4.1181    1.6637 C   0  0  0  0  0  0
    0.4307    4.8581    1.8147 N   0  0  0  0  0  0
    1.5587   -0.0955    0.1317 C   0  0  0  0  0  0
   -0.4610   -0.6826   -1.2011 N   0  0  0  0  0  0
   -1.7408   -0.9836   -1.4940 C   0  0  0  0  0  0
   -1.9416   -1.6578   -2.7566 C   0  0  0  0  0  0
    4.0958   -1.6173    0.3820 C   0  0  0  0  0  0
    4.8999   -2.9190    0.1612 C   0  0  0  0  0  0
   -2.6892   -0.7365   -0.7464 O   0  0  0  0  0  0
   -0.7006   -1.6780   -4.0120 S   0  0  0  0  0  0
   -3.1081   -2.2767   -3.1725 C   0  0  0  0  0  0
   -3.0261   -2.8258   -4.4856 C   0  0  0  0  0  0
   -1.7711   -2.5795   -5.0615 C   0  0  0  0  0  0
   -1.6139   -3.2335   -6.6794 S   0  0  0  0  0  0
   -3.2496   -3.8401   -6.5747 C   0  0  0  0  0  0
   -3.8667   -3.5539   -5.3782 C   0  0  0  0  0  0
    4.5778   -4.0123    1.1976 C   0  0  0  0  0  0
    6.4102   -2.6258    0.1202 C   0  0  0  0  0  0
   -0.3931   -0.5650    0.8582 H   0  0  0  0  0  0
   -1.2583    1.1301    1.9245 H   0  0  0  0  0  0
   -2.2016    3.5422    0.6677 H   0  0  0  0  0  0
   -2.1615    3.1730    2.3825 H   0  0  0  0  0  0
    1.8966    0.3604    1.0634 H   0  0  0  0  0  0
    2.0514    0.4527   -0.6728 H   0  0  0  0  0  0
    0.2538   -0.9253   -1.8717 H   0  0  0  0  0  0
    4.4099   -0.8459   -0.3216 H   0  0  0  0  0  0
    4.2363   -1.2148    1.3856 H   0  0  0  0  0  0
    4.6276   -3.3147   -0.8186 H   0  0  0  0  0  0
   -3.9954   -2.3482   -2.5600 H   0  0  0  0  0  0
   -3.6720   -4.3796   -7.4093 H   0  0  0  0  0  0
   -4.8778   -3.8530   -5.1445 H   0  0  0  0  0  0
    4.7348   -3.6555    2.2162 H   0  0  0  0  0  0
    5.2088   -4.8902    1.0545 H   0  0  0  0  0  0
    3.5460   -4.3529    1.1182 H   0  0  0  0  0  0
    6.7658   -2.2293    1.0721 H   0  0  0  0  0  0
    6.6517   -1.8961   -0.6537 H   0  0  0  0  0  0
    6.9834   -3.5279   -0.0975 H   0  0  0  0  0  0
  1  2  2  0  0  0
  2 11  1  0  0  0
  2 15  1  0  0  0
  2  3  2  0  0  0
  4  5  1  0  0  0
  4 11  1  0  0  0
  4 12  1  0  0  0
  4 27  1  0  0  0
  5  6  1  0  0  0
  5  7  2  0  0  0
  6  8  1  0  0  0
  6 28  1  0  0  0
  8  9  1  0  0  0
  8 29  1  0  0  0
  8 30  1  0  0  0
  9 10  3  0  0  0
 11 31  1  0  0  0
 11 32  1  0  0  0
 12 13  1  0  0  0
 12 33  1  0  0  0
 13 14  1  0  0  0
 13 17  2  0  0  0
 14 18  1  0  0  0
 14 19  2  0  0  0
 15 16  1  0  0  0
 15 34  1  0  0  0
 15 35  1  0  0  0
 16 25  1  0  0  0
 16 26  1  0  0  0
 16 36  1  0  0  0
 18 21  1  0  0  0
 19 20  1  0  0  0
 19 37  1  0  0  0
 20 21  2  0  0  0
 20 24  1  0  0  0
 21 22  1  0  0  0
 22 23  1  0  0  0
 23 24  2  0  0  0
 23 38  1  0  0  0
 24 39  1  0  0  0
 25 40  1  0  0  0
 25 41  1  0  0  0
 25 42  1  0  0  0
 26 43  1  0  0  0
 26 44  1  0  0  0
 26 45  1  0  0  0
M  END
> <chembl_id>
CHEMBL2153171

> <chembl_pref_name>
None

> <s_m_source_file>
sdf/inactives_sanitized.sdf

> <i_m_source_file_index>
86

> <i_lp_mmshare_version>
49012

> <i_m_ct_stereo_status>
1

> <i_f3d_flags>
0

> <s_epik_input>
TiNDW0NIMl1bTkhdQyg9TylbQ0BIXShbQ0gyXVMoPU8pKD1PKVtDSDJdW0NIXShbQ0gzXSlbQ0gzXSlbTkhdQyg9TyljKFtjSF0xKXNjKGMxMilzW2NIXVtjSF0y

> <s_epik_cmdline>
J2VwaWtfcHl0aG9uJywgJy1waHQnLCAnMC41JywgJy1waCcsICc3LjUnLCAnLW50JywgJy1tYScsICcyMDAnLCAnLWltYWUnLCAnPGluZmlsZS5tYWU+JywgJy1vbWFlJywgJzxvdXRmaWxlLm1hZT4n

> <r_lp_tautomer_probability>
1

> <r_epik_Ionization_Penalty>
  0.0001

> <r_epik_Ionization_Penalty_Charging>
  0.0000

> <r_epik_Ionization_Penalty_Neutral>
  0.0001

> <r_epik_State_Penalty>
 -0.0000

> <r_epik_Charging_Adjusted_Penalty>
0

> <i_epik_Tot_Q>
0

> <i_epik_Tot_abs_Q>
0

> <s_lp_Force_Field>
OPLS3e

> <r_lp_Energy>
-2.220988

> <b_lp_Chiralities_Consistent>
1

> <s_lp_Variant>
sdf/inactives_sanitized.sdf:86-1

$$$$
sdf/inactives_sanitized.sdf:87
                    3D
 Schrodinger Suite 2020-1.
 59 62  0  0  1  0            999 V2000
   -2.3072   -1.2572    0.2347 C   0  0  1  0  0  0
   -3.3429   -3.0074    0.7881 N   0  0  0  0  0  0
   -2.7895   -2.5379   -0.5042 C   0  0  1  0  0  0
   -2.8699   -1.9133    1.5128 C   0  0  0  0  0  0
   -0.8557   -1.0712    0.2702 N   0  0  0  0  0  0
   -0.1826    0.0868    0.1101 C   0  0  0  0  0  0
    1.3864   -0.0107    0.0758 C   0  0  0  0  0  0
    1.6529   -1.2945    2.2760 C   0  0  0  0  0  0
    1.9272   -1.1016    0.9250 N   0  0  0  0  0  0
   -3.7542   -2.3149   -1.4903 O   0  0  0  0  0  0
   -2.8973   -1.6225    2.7065 O   0  0  0  0  0  0
   -0.7591    1.1369   -0.1844 O   0  0  0  0  0  0
    0.9312   -0.5904    2.9859 O   0  0  0  0  0  0
    2.2703   -2.4241    2.6874 O   0  0  0  0  0  0
   -3.3762   -1.8195   -2.7257 C   0  0  0  0  0  0
    1.9539   -3.0359    3.9395 C   0  0  0  0  0  0
    0.5686   -3.6783    3.9203 C   0  0  0  0  0  0
    1.7233   -0.2670   -1.4286 C   0  0  0  0  0  0
    1.9861    1.3903    0.4426 C   0  0  0  0  0  0
   -4.4007   -1.6203   -3.6534 C   0  0  0  0  0  0
   -2.0539   -1.5089   -3.0876 C   0  0  0  0  0  0
   -0.3541   -3.3623    4.9204 C   0  0  0  0  0  0
    0.2214   -4.5725    2.9028 C   0  0  0  0  0  0
    3.5067    1.4700    0.1849 C   0  0  0  0  0  0
    3.2384   -0.2100   -1.7233 C   0  0  0  0  0  0
   -1.0481   -5.1438    2.8827 C   0  0  0  0  0  0
   -4.1201   -1.1197   -4.9219 C   0  0  0  0  0  0
   -1.7723   -1.0050   -4.3545 C   0  0  0  0  0  0
   -1.6230   -3.9355    4.9007 C   0  0  0  0  0  0
   -2.8065   -0.8133   -5.2668 C   0  0  0  0  0  0
    3.8502    1.1327   -1.2791 C   0  0  0  0  0  0
   -1.9644   -4.8228    3.8820 C   0  0  0  0  0  0
   -2.7962   -0.3275   -0.0642 H   0  0  0  0  0  0
   -3.4616   -3.9503    1.1285 H   0  0  0  0  0  0
   -2.0198   -3.2016   -0.9072 H   0  0  0  0  0  0
   -0.3146   -1.9065    0.4399 H   0  0  0  0  0  0
    2.6326   -1.6927    0.5105 H   0  0  0  0  0  0
    2.6921   -3.8107    4.1476 H   0  0  0  0  0  0
    2.0301   -2.3041    4.7460 H   0  0  0  0  0  0
    1.3992   -1.2750   -1.6976 H   0  0  0  0  0  0
    1.1659    0.3875   -2.1038 H   0  0  0  0  0  0
    1.4706    2.2196   -0.0455 H   0  0  0  0  0  0
    1.8458    1.5686    1.5101 H   0  0  0  0  0  0
   -5.4214   -1.8543   -3.3876 H   0  0  0  0  0  0
   -1.2331   -1.6486   -2.4018 H   0  0  0  0  0  0
   -0.0942   -2.6689    5.7072 H   0  0  0  0  0  0
    0.9309   -4.8197    2.1264 H   0  0  0  0  0  0
    3.8721    2.4680    0.4298 H   0  0  0  0  0  0
    4.0317    0.7836    0.8509 H   0  0  0  0  0  0
    3.7475   -1.0290   -1.2130 H   0  0  0  0  0  0
    3.4142   -0.3621   -2.7889 H   0  0  0  0  0  0
   -1.3218   -5.8310    2.0957 H   0  0  0  0  0  0
   -4.9180   -0.9684   -5.6339 H   0  0  0  0  0  0
   -0.7556   -0.7632   -4.6276 H   0  0  0  0  0  0
   -2.3408   -3.6895    5.6692 H   0  0  0  0  0  0
   -2.5880   -0.4232   -6.2501 H   0  0  0  0  0  0
    3.4799    1.9284   -1.9275 H   0  0  0  0  0  0
    4.9325    1.1115   -1.4125 H   0  0  0  0  0  0
   -2.9502   -5.2637    3.8659 H   0  0  0  0  0  0
  1  3  1  0  0  0
  1  4  1  0  0  0
  1  5  1  0  0  0
  1 33  1  0  0  0
  2  4  1  0  0  0
  2  3  1  0  0  0
  2 34  1  0  0  0
  3 10  1  0  0  0
  3 35  1  0  0  0
  4 11  2  0  0  0
  5  6  1  0  0  0
  5 36  1  0  0  0
  6  7  1  0  0  0
  6 12  2  0  0  0
  7  9  1  0  0  0
  7 18  1  0  0  0
  7 19  1  0  0  0
  8  9  1  0  0  0
  8 13  2  0  0  0
  8 14  1  0  0  0
  9 37  1  0  0  0
 10 15  1  0  0  0
 14 16  1  0  0  0
 15 20  2  0  0  0
 15 21  1  0  0  0
 16 17  1  0  0  0
 16 38  1  0  0  0
 16 39  1  0  0  0
 17 22  2  0  0  0
 17 23  1  0  0  0
 18 25  1  0  0  0
 18 40  1  0  0  0
 18 41  1  0  0  0
 19 24  1  0  0  0
 19 42  1  0  0  0
 19 43  1  0  0  0
 20 27  1  0  0  0
 20 44  1  0  0  0
 21 28  2  0  0  0
 21 45  1  0  0  0
 22 29  1  0  0  0
 22 46  1  0  0  0
 23 26  2  0  0  0
 23 47  1  0  0  0
 24 31  1  0  0  0
 24 48  1  0  0  0
 24 49  1  0  0  0
 25 31  1  0  0  0
 25 50  1  0  0  0
 25 51  1  0  0  0
 26 32  1  0  0  0
 26 52  1  0  0  0
 27 30  2  0  0  0
 27 53  1  0  0  0
 28 30  1  0  0  0
 28 54  1  0  0  0
 29 32  2  0  0  0
 29 55  1  0  0  0
 30 56  1  0  0  0
 31 57  1  0  0  0
 31 58  1  0  0  0
 32 59  1  0  0  0
M  END
> <chembl_id>
CHEMBL64612

> <chembl_pref_name>
None

> <i_m_ct_stereo_status>
1

> <s_m_source_file>
sdf/inactives_sanitized.sdf

> <i_m_source_file_index>
87

> <i_lp_mmshare_version>
49012

> <i_f3d_flags>
0

> <s_epik_input>
W2NIXTFbY0hdW2NIXVtjSF1bY0hdYzFPW0NASF0oW05IXUMyPU8pW0NAQEhdMltOSF1DKD1PKUMzKFtDSDJdW0NIMl1bQ0gyXVtDSDJdW0NIMl0zKVtOSF1DKD1PKU9bQ0gyXWM0W2NIXVtjSF1bY0hdW2NIXVtjSF00

> <s_epik_cmdline>
J2VwaWtfcHl0aG9uJywgJy1waHQnLCAnMC41JywgJy1waCcsICc3LjUnLCAnLW50JywgJy1tYScsICcyMDAnLCAnLWltYWUnLCAnPGluZmlsZS5tYWU+JywgJy1vbWFlJywgJzxvdXRmaWxlLm1hZT4n

> <r_lp_tautomer_probability>
1

> <r_epik_Ionization_Penalty>
  0.0000

> <r_epik_Ionization_Penalty_Charging>
  0.0000

> <r_epik_Ionization_Penalty_Neutral>
  0.0000

> <r_epik_State_Penalty>
 -0.0000

> <r_epik_Charging_Adjusted_Penalty>
0

> <i_epik_Tot_Q>
0

> <i_epik_Tot_abs_Q>
0

> <s_epik_Chemistry_Notes>
This compound has an ester and may undergo hydrolysis at high or low pH. This compound contains an acetal/aminal-like group ( X-CH(R)-Y where X, Y are N, S, or O) that may be acid/base labile, releasing an aldehyde.

> <s_lp_Force_Field>
OPLS3e

> <r_lp_Energy>
46.327563

> <b_lp_Chiralities_Consistent>
1

> <s_lp_Variant>
sdf/inactives_sanitized.sdf:87-1

$$$$
sdf/inactives_sanitized.sdf:88
                    3D
 Schrodinger Suite 2020-1.
 47 47  0  0  1  0            999 V2000
    2.2802    1.1547   -2.0540 C   0  0  0  0  0  0
    1.7680    0.3552   -2.8402 O   0  0  0  0  0  0
    2.9666    2.2742   -2.4098 O   0  0  0  0  0  0
    3.1943    2.7194   -3.7606 C   0  0  0  0  0  0
    1.8612    3.0341   -4.4840 C   0  0  0  0  0  0
    4.0301    1.6896   -4.5611 C   0  0  0  0  0  0
    4.0072    4.0208   -3.6030 C   0  0  0  0  0  0
   -0.0043   -2.5963    0.3737 N   0  0  0  0  0  0
   -1.0778   -3.4752    0.4845 N   0  0  0  0  0  0
   -2.1515   -2.7622    0.2517 C   0  0  0  0  0  0
   -1.8706   -1.4596   -0.0072 O   0  0  0  0  0  0
   -0.5152   -1.4216    0.0845 C   0  0  0  0  0  0
    0.1630   -0.1484   -0.1429 C   0  0  0  0  0  0
   -0.4884    0.8527   -0.4537 O   0  0  0  0  0  0
    1.6884   -0.1031    0.0353 C   0  0  1  0  0  0
    2.2768    1.0613   -0.6638 N   0  0  0  0  0  0
    2.0173   -0.0579    1.5520 C   0  0  0  0  0  0
    3.5274   -0.1065    1.8634 C   0  0  0  0  0  0
    3.8241   -0.1331    3.3689 C   0  0  0  0  0  0
   -3.5979   -3.2206    0.2455 C   0  0  0  0  0  0
   -4.2411   -3.0115   -1.1369 C   0  0  0  0  0  0
   -4.4045   -2.5259    1.3568 C   0  0  0  0  0  0
    2.0360    3.5004   -5.4543 H   0  0  0  0  0  0
    1.2452    3.7177   -3.8984 H   0  0  0  0  0  0
    1.2667    2.1381   -4.6619 H   0  0  0  0  0  0
    3.4843    0.7632   -4.7393 H   0  0  0  0  0  0
    4.9460    1.4265   -4.0301 H   0  0  0  0  0  0
    4.3187    2.0839   -5.5363 H   0  0  0  0  0  0
    4.2416    4.4681   -4.5699 H   0  0  0  0  0  0
    4.9515    3.8424   -3.0868 H   0  0  0  0  0  0
    3.4611    4.7655   -3.0219 H   0  0  0  0  0  0
    2.1558   -1.0077   -0.3610 H   0  0  0  0  0  0
    2.9825    1.5850   -0.1670 H   0  0  0  0  0  0
    1.5998    0.8499    1.9936 H   0  0  0  0  0  0
    1.5408   -0.8970    2.0633 H   0  0  0  0  0  0
    3.9679   -0.9904    1.4001 H   0  0  0  0  0  0
    4.0288    0.7560    1.4225 H   0  0  0  0  0  0
    4.8981   -0.1721    3.5530 H   0  0  0  0  0  0
    3.3757   -1.0051    3.8460 H   0  0  0  0  0  0
    3.4357    0.7570    3.8651 H   0  0  0  0  0  0
   -3.6266   -4.2919    0.4522 H   0  0  0  0  0  0
   -3.6953   -3.5494   -1.9132 H   0  0  0  0  0  0
   -4.2593   -1.9567   -1.4147 H   0  0  0  0  0  0
   -5.2707   -3.3708   -1.1520 H   0  0  0  0  0  0
   -3.9749   -2.7225    2.3399 H   0  0  0  0  0  0
   -5.4364   -2.8780    1.3743 H   0  0  0  0  0  0
   -4.4306   -1.4444    1.2163 H   0  0  0  0  0  0
  1 16  1  0  0  0
  1  2  2  0  0  0
  1  3  1  0  0  0
  3  4  1  0  0  0
  4  7  1  0  0  0
  4  5  1  0  0  0
  4  6  1  0  0  0
  5 23  1  0  0  0
  5 24  1  0  0  0
  5 25  1  0  0  0
  6 26  1  0  0  0
  6 27  1  0  0  0
  6 28  1  0  0  0
  7 29  1  0  0  0
  7 30  1  0  0  0
  7 31  1  0  0  0
  8  9  1  0  0  0
  8 12  2  0  0  0
  9 10  2  0  0  0
 10 11  1  0  0  0
 10 20  1  0  0  0
 11 12  1  0  0  0
 12 13  1  0  0  0
 13 14  2  0  0  0
 13 15  1  0  0  0
 15 16  1  0  0  0
 15 17  1  0  0  0
 15 32  1  0  0  0
 16 33  1  0  0  0
 17 18  1  0  0  0
 17 34  1  0  0  0
 17 35  1  0  0  0
 18 19  1  0  0  0
 18 36  1  0  0  0
 18 37  1  0  0  0
 19 38  1  0  0  0
 19 39  1  0  0  0
 19 40  1  0  0  0
 20 21  1  0  0  0
 20 22  1  0  0  0
 20 41  1  0  0  0
 21 42  1  0  0  0
 21 43  1  0  0  0
 21 44  1  0  0  0
 22 45  1  0  0  0
 22 46  1  0  0  0
 22 47  1  0  0  0
M  END
> <chembl_id>
CHEMBL209766

> <chembl_pref_name>
None

> <i_m_ct_stereo_status>
1

> <s_m_source_file>
sdf/inactives_sanitized.sdf

> <i_m_source_file_index>
88

> <i_lp_mmshare_version>
49012

> <i_f3d_flags>
0

> <s_epik_input>
W0NIM11DKFtDSDNdKShbQ0gzXSlPQyg9TylbTkhdW0NAQEhdKFtDSDJdW0NIMl1bQ0gzXSlDKD1PKWMobzEpbm5jMVtDSF0oW0NIM10pW0NIM10=

> <s_epik_cmdline>
J2VwaWtfcHl0aG9uJywgJy1waHQnLCAnMC41JywgJy1waCcsICc3LjUnLCAnLW50JywgJy1tYScsICcyMDAnLCAnLWltYWUnLCAnPGluZmlsZS5tYWU+JywgJy1vbWFlJywgJzxvdXRmaWxlLm1hZT4n

> <r_lp_tautomer_probability>
1

> <r_epik_Ionization_Penalty>
  0.0000

> <r_epik_Ionization_Penalty_Charging>
  0.0000

> <r_epik_Ionization_Penalty_Neutral>
  0.0000

> <r_epik_State_Penalty>
 -0.0000

> <r_epik_Charging_Adjusted_Penalty>
0

> <i_epik_Tot_Q>
0

> <i_epik_Tot_abs_Q>
0

> <s_epik_Chemistry_Notes>
This compound has an ester and may undergo hydrolysis at high or low pH.

> <s_lp_Force_Field>
OPLS3e

> <r_lp_Energy>
14.780402

> <b_lp_Chiralities_Consistent>
1

> <s_lp_Variant>
sdf/inactives_sanitized.sdf:88-1

$$$$
sdf/inactives_sanitized.sdf:89
                    3D
 Schrodinger Suite 2020-1.
 73 76  0  0  1  0            999 V2000
    3.0547   -0.3368   -0.4450 C   0  0  0  0  0  0
    3.3998    0.9683    0.3767 C   0  0  0  0  0  0
    3.0894    2.3335   -0.2851 C   0  0  0  0  0  0
    3.5645    2.4046   -1.7433 C   0  0  0  0  0  0
    3.0166    1.2329   -2.5703 C   0  0  0  0  0  0
    3.4046   -0.1273   -1.9573 C   0  0  0  0  0  0
    1.5148   -0.6367   -0.3802 C   0  0  0  0  0  0
    1.0881   -1.7545   -0.6867 O   0  0  0  0  0  0
   -1.3638    3.7092   -1.4821 O   0  0  0  0  0  0
   -1.1108    4.0008   -2.7850 C   0  0  0  0  0  0
   -0.7372    2.9437   -3.4669 N   0  0  0  0  0  0
   -0.7438    1.8802   -2.5699 N   0  0  0  0  0  0
   -1.1113    2.3762   -1.4120 C   0  0  0  0  0  0
   -1.2550    1.7047   -0.1206 C   0  0  0  0  0  0
   -1.7321    2.3107    0.8411 O   0  0  0  0  0  0
   -0.7965    0.2538    0.0037 C   0  0  1  0  0  0
    0.6652    0.3550   -0.0524 N   0  0  0  0  0  0
   -1.3089   -0.4783    1.2770 C   0  0  0  0  0  0
   -2.8283   -0.7449    1.2945 C   0  0  0  0  0  0
   -3.2787   -1.5294    2.5342 C   0  0  0  0  0  0
    3.7009   -1.5557    0.0876 N   0  0  0  0  0  0
    5.0076   -1.7953    0.3308 C   0  0  0  0  0  0
    5.3523   -3.1858    0.8279 C   0  0  0  0  0  0
    5.8929   -0.9572    0.1507 O   0  0  0  0  0  0
    6.6952   -3.5709    0.9385 C   0  0  0  0  0  0
    7.0340   -4.8431    1.3898 C   0  0  0  0  0  0
    6.0456   -5.7602    1.7424 C   0  0  0  0  0  0
    4.6992   -5.3819    1.6389 C   0  0  0  0  0  0
    4.3578   -4.1100    1.1873 C   0  0  0  0  0  0
    6.4847   -6.9980    2.1765 O   0  0  0  0  0  0
    5.5517   -8.0111    2.5517 C   0  0  0  0  0  0
    6.2550   -9.0822    2.9150 F   0  0  0  0  0  0
    4.8146   -7.6392    3.6000 F   0  0  0  0  0  0
    4.7735   -8.3692    1.5287 F   0  0  0  0  0  0
   -1.2700    5.4063   -3.2646 C   0  0  0  0  0  0
   -0.9455    5.7481   -4.5823 C   0  0  0  0  0  0
   -1.0940    7.0597   -5.0287 C   0  0  0  0  0  0
   -1.5703    8.0431   -4.1635 C   0  0  0  0  0  0
   -1.9038    7.7227   -2.8370 C   0  0  0  0  0  0
   -1.7465    6.4032   -2.4042 C   0  0  0  0  0  0
   -2.3850    8.6279   -1.9109 O   0  0  0  0  0  0
   -2.5727    9.9843   -2.3004 C   0  0  0  0  0  0
    2.9953    0.9011    1.3883 H   0  0  0  0  0  0
    4.4628    0.9720    0.6080 H   0  0  0  0  0  0
    2.0216    2.5462   -0.2476 H   0  0  0  0  0  0
    3.5603    3.1314    0.2907 H   0  0  0  0  0  0
    3.2534    3.3506   -2.1883 H   0  0  0  0  0  0
    4.6552    2.3954   -1.7742 H   0  0  0  0  0  0
    1.9323    1.3084   -2.6426 H   0  0  0  0  0  0
    3.3908    1.2955   -3.5926 H   0  0  0  0  0  0
    4.4778   -0.2759   -2.0865 H   0  0  0  0  0  0
    3.0301   -0.9568   -2.5610 H   0  0  0  0  0  0
   -1.1449   -0.2907   -0.8774 H   0  0  0  0  0  0
    1.0461    1.2658    0.1603 H   0  0  0  0  0  0
   -0.7959   -1.4382    1.3538 H   0  0  0  0  0  0
   -1.0119    0.0721    2.1721 H   0  0  0  0  0  0
   -3.3779    0.1960    1.2577 H   0  0  0  0  0  0
   -3.1115   -1.3026    0.4009 H   0  0  0  0  0  0
   -4.3556   -1.6989    2.5170 H   0  0  0  0  0  0
   -3.0435   -0.9888    3.4517 H   0  0  0  0  0  0
   -2.7918   -2.5039    2.5851 H   0  0  0  0  0  0
    3.1396   -2.3875   -0.0257 H   0  0  0  0  0  0
    7.4922   -2.8906    0.6731 H   0  0  0  0  0  0
    8.0759   -5.1192    1.4654 H   0  0  0  0  0  0
    3.9013   -6.0582    1.9031 H   0  0  0  0  0  0
    3.3083   -3.8602    1.1252 H   0  0  0  0  0  0
   -0.5758    4.9990   -5.2677 H   0  0  0  0  0  0
   -0.8399    7.3141   -6.0472 H   0  0  0  0  0  0
   -1.6746    9.0490   -4.5407 H   0  0  0  0  0  0
   -2.0035    6.1582   -1.3835 H   0  0  0  0  0  0
   -2.9646   10.5507   -1.4557 H   0  0  0  0  0  0
   -3.2913   10.0710   -3.1169 H   0  0  0  0  0  0
   -1.6315   10.4479   -2.6002 H   0  0  0  0  0  0
  1 21  1  0  0  0
  1  2  1  0  0  0
  1  6  1  0  0  0
  1  7  1  0  0  0
  2  3  1  0  0  0
  2 43  1  0  0  0
  2 44  1  0  0  0
  3  4  1  0  0  0
  3 45  1  0  0  0
  3 46  1  0  0  0
  4  5  1  0  0  0
  4 47  1  0  0  0
  4 48  1  0  0  0
  5  6  1  0  0  0
  5 49  1  0  0  0
  5 50  1  0  0  0
  6 51  1  0  0  0
  6 52  1  0  0  0
  7  8  2  0  0  0
  7 17  1  0  0  0
  9 10  1  0  0  0
  9 13  1  0  0  0
 10 11  2  0  0  0
 10 35  1  0  0  0
 11 12  1  0  0  0
 12 13  2  0  0  0
 13 14  1  0  0  0
 14 15  2  0  0  0
 14 16  1  0  0  0
 16 17  1  0  0  0
 16 18  1  0  0  0
 16 53  1  0  0  0
 17 54  1  0  0  0
 18 19  1  0  0  0
 18 55  1  0  0  0
 18 56  1  0  0  0
 19 20  1  0  0  0
 19 57  1  0  0  0
 19 58  1  0  0  0
 20 59  1  0  0  0
 20 60  1  0  0  0
 20 61  1  0  0  0
 21 22  1  0  0  0
 21 62  1  0  0  0
 22 23  1  0  0  0
 22 24  2  0  0  0
 23 25  2  0  0  0
 23 29  1  0  0  0
 25 26  1  0  0  0
 25 63  1  0  0  0
 26 27  2  0  0  0
 26 64  1  0  0  0
 27 28  1  0  0  0
 27 30  1  0  0  0
 28 29  2  0  0  0
 28 65  1  0  0  0
 29 66  1  0  0  0
 30 31  1  0  0  0
 31 32  1  0  0  0
 31 33  1  0  0  0
 31 34  1  0  0  0
 35 36  2  0  0  0
 35 40  1  0  0  0
 36 37  1  0  0  0
 36 67  1  0  0  0
 37 38  2  0  0  0
 37 68  1  0  0  0
 38 39  1  0  0  0
 38 69  1  0  0  0
 39 40  2  0  0  0
 39 41  1  0  0  0
 40 70  1  0  0  0
 41 42  1  0  0  0
 42 71  1  0  0  0
 42 72  1  0  0  0
 42 73  1  0  0  0
M  END
> <chembl_id>
CHEMBL376994

> <chembl_pref_name>
None

> <i_m_ct_stereo_status>
1

> <s_m_source_file>
sdf/inactives_sanitized.sdf

> <i_m_source_file_index>
89

> <i_lp_mmshare_version>
49012

> <i_f3d_flags>
0

> <s_epik_input>
RkMoRikoRilPYyhbY0hdW2NIXTEpW2NIXVtjSF1jMUMoPU8pW05IXUMyKFtDSDJdW0NIMl1bQ0gyXVtDSDJdW0NIMl0yKUMoPU8pW05IXVtDQEBIXShbQ0gyXVtDSDJdW0NIM10pQyg9TyljKG5uMylvYzMtYzRbY0hdW2NIXVtjSF1jKFtjSF00KU9bQ0gzXQ==

> <s_epik_cmdline>
J2VwaWtfcHl0aG9uJywgJy1waHQnLCAnMC41JywgJy1waCcsICc3LjUnLCAnLW50JywgJy1tYScsICcyMDAnLCAnLWltYWUnLCAnPGluZmlsZS5tYWU+JywgJy1vbWFlJywgJzxvdXRmaWxlLm1hZT4n

> <r_lp_tautomer_probability>
1

> <r_epik_Ionization_Penalty>
  0.0000

> <r_epik_Ionization_Penalty_Charging>
  0.0000

> <r_epik_Ionization_Penalty_Neutral>
  0.0000

> <r_epik_State_Penalty>
 -0.0000

> <r_epik_Charging_Adjusted_Penalty>
0

> <i_epik_Tot_Q>
0

> <i_epik_Tot_abs_Q>
0

> <s_lp_Force_Field>
OPLS3e

> <r_lp_Energy>
64.222068

> <b_lp_Chiralities_Consistent>
1

> <s_lp_Variant>
sdf/inactives_sanitized.sdf:89-1

$$$$
sdf/inactives_sanitized.sdf:90
                    3D
 Schrodinger Suite 2020-1.
 75 77  0  0  1  0            999 V2000
    1.5815   -2.0448   -1.6321 C   0  0  0  0  0  0
   -1.9882    2.8397    1.4730 C   0  0  0  0  0  0
   -0.1488    0.5352   -0.5666 C   0  0  0  0  0  0
    1.8410   -0.7318   -1.4720 N   0  0  0  0  0  0
   -1.9265    1.8216    2.6945 C   0  0  0  0  0  0
   -0.5082    1.6967    0.0058 N   0  0  0  0  0  0
    1.3443    0.1803   -0.4299 C   0  0  2  0  0  0
   -1.8757    2.2290    0.0755 C   0  0  2  0  0  0
    2.3457   -2.7506   -2.7797 C   0  0  0  0  0  0
   -1.8554    2.4499    3.8835 N   0  0  0  0  0  0
    0.8207   -2.6782   -0.8983 O   0  0  0  0  0  0
   -2.1580    4.0460    1.6785 O   0  0  0  0  0  0
   -0.9302   -0.2163   -1.1495 O   0  0  0  0  0  0
   -3.3088   -0.1725    5.3716 N   0  0  0  0  0  0
   -1.9378    0.6022    2.5200 O   0  0  0  0  0  0
    1.6590   -0.3418    1.0000 C   0  0  0  0  0  0
    1.4608   -3.7599   -3.5316 C   0  0  0  0  0  0
    3.6950   -3.3289   -2.3091 C   0  0  0  0  0  0
   -1.8476    1.7892    5.1884 C   0  0  0  0  0  0
   -3.1842    1.1668    5.5745 C   0  0  0  0  0  0
   -2.1804    3.2579   -1.0482 C   0  0  0  0  0  0
    3.1489   -0.6532    1.2795 C   0  0  0  0  0  0
   -4.4826   -0.7614    5.7154 C   0  0  0  0  0  0
    1.1416   -5.0077   -2.9773 C   0  0  0  0  0  0
    3.8154   -4.0749   -1.1260 C   0  0  0  0  0  0
    4.8375   -3.0917   -3.0832 C   0  0  0  0  0  0
    0.9445   -3.4164   -4.7872 C   0  0  0  0  0  0
   -4.2017    1.9413    6.1426 C   0  0  0  0  0  0
    3.3256   -1.3005    2.6692 C   0  0  0  0  0  0
    4.0578    0.5793    1.0893 C   0  0  0  0  0  0
   -2.2150    2.6531   -2.4612 C   0  0  0  0  0  0
   -5.5494   -0.0560    6.2756 C   0  0  0  0  0  0
    0.1326   -4.3080   -5.4829 C   0  0  0  0  0  0
    0.3299   -5.8994   -3.6728 C   0  0  0  0  0  0
    5.0539   -4.5699   -0.7274 C   0  0  0  0  0  0
    6.0763   -3.5871   -2.6854 C   0  0  0  0  0  0
   -5.4002    1.3155    6.4923 C   0  0  0  0  0  0
    6.1794   -4.3238   -1.5088 C   0  0  0  0  0  0
   -0.1701   -5.5464   -4.9232 C   0  0  0  0  0  0
    2.4807   -0.3024   -2.1240 H   0  0  0  0  0  0
    0.2029    2.2666    0.4401 H   0  0  0  0  0  0
    1.8921    1.1100   -0.5859 H   0  0  0  0  0  0
   -2.6145    1.4273   -0.0052 H   0  0  0  0  0  0
    2.5901   -1.9655   -3.5000 H   0  0  0  0  0  0
   -1.8609    3.4596    3.8921 H   0  0  0  0  0  0
    1.3200    0.3928    1.7324 H   0  0  0  0  0  0
    1.0629   -1.2328    1.2002 H   0  0  0  0  0  0
   -1.0525    1.0404    5.2202 H   0  0  0  0  0  0
   -1.5814    2.5335    5.9398 H   0  0  0  0  0  0
   -3.1496    3.7253   -0.8642 H   0  0  0  0  0  0
   -1.4450    4.0645   -1.0316 H   0  0  0  0  0  0
    3.4734   -1.4051    0.5596 H   0  0  0  0  0  0
   -4.5586   -1.8235    5.5348 H   0  0  0  0  0  0
    1.5126   -5.2905   -2.0044 H   0  0  0  0  0  0
    2.9530   -4.2719   -0.5065 H   0  0  0  0  0  0
    4.7699   -2.5214   -3.9983 H   0  0  0  0  0  0
    1.1697   -2.4567   -5.2291 H   0  0  0  0  0  0
   -4.0707    3.0015    6.3036 H   0  0  0  0  0  0
    3.8637   -0.6588    3.3667 H   0  0  0  0  0  0
    3.8815   -2.2353    2.5917 H   0  0  0  0  0  0
    2.3684   -1.5368    3.1352 H   0  0  0  0  0  0
    3.4914    1.5107    1.1019 H   0  0  0  0  0  0
    4.5789    0.5262    0.1329 H   0  0  0  0  0  0
    4.8225    0.6595    1.8618 H   0  0  0  0  0  0
   -2.4899    3.4071   -3.1994 H   0  0  0  0  0  0
   -2.9438    1.8447   -2.5272 H   0  0  0  0  0  0
   -1.2434    2.2528   -2.7508 H   0  0  0  0  0  0
   -6.4684   -0.5596    6.5369 H   0  0  0  0  0  0
   -0.2623   -4.0390   -6.4516 H   0  0  0  0  0  0
    0.0864   -6.8595   -3.2422 H   0  0  0  0  0  0
    5.1411   -5.1414    0.1849 H   0  0  0  0  0  0
    6.9537   -3.4000   -3.2867 H   0  0  0  0  0  0
   -6.2061    1.8882    6.9270 H   0  0  0  0  0  0
    7.1407   -4.7076   -1.1996 H   0  0  0  0  0  0
   -0.8012   -6.2378   -5.4618 H   0  0  0  0  0  0
  1  4  1  0  0  0
  1  9  1  0  0  0
  1 11  2  0  0  0
  2  8  1  0  0  0
  2  5  1  0  0  0
  2 12  2  0  0  0
  3  7  1  0  0  0
  3  6  1  0  0  0
  3 13  2  0  0  0
  4  7  1  0  0  0
  4 40  1  0  0  0
  5 10  1  0  0  0
  5 15  2  0  0  0
  6  8  1  0  0  0
  6 41  1  0  0  0
  7 16  1  0  0  0
  7 42  1  0  0  0
  8 21  1  0  0  0
  8 43  1  0  0  0
  9 17  1  0  0  0
  9 18  1  0  0  0
  9 44  1  0  0  0
 10 19  1  0  0  0
 10 45  1  0  0  0
 14 20  2  0  0  0
 14 23  1  0  0  0
 16 22  1  0  0  0
 16 46  1  0  0  0
 16 47  1  0  0  0
 17 24  2  0  0  0
 17 27  1  0  0  0
 18 25  2  0  0  0
 18 26  1  0  0  0
 19 20  1  0  0  0
 19 48  1  0  0  0
 19 49  1  0  0  0
 20 28  1  0  0  0
 21 31  1  0  0  0
 21 50  1  0  0  0
 21 51  1  0  0  0
 22 29  1  0  0  0
 22 30  1  0  0  0
 22 52  1  0  0  0
 23 32  2  0  0  0
 23 53  1  0  0  0
 24 34  1  0  0  0
 24 54  1  0  0  0
 25 35  1  0  0  0
 25 55  1  0  0  0
 26 36  2  0  0  0
 26 56  1  0  0  0
 27 33  2  0  0  0
 27 57  1  0  0  0
 28 37  2  0  0  0
 28 58  1  0  0  0
 29 59  1  0  0  0
 29 60  1  0  0  0
 29 61  1  0  0  0
 30 62  1  0  0  0
 30 63  1  0  0  0
 30 64  1  0  0  0
 31 65  1  0  0  0
 31 66  1  0  0  0
 31 67  1  0  0  0
 32 37  1  0  0  0
 32 68  1  0  0  0
 33 39  1  0  0  0
 33 69  1  0  0  0
 34 39  2  0  0  0
 34 70  1  0  0  0
 35 38  2  0  0  0
 35 71  1  0  0  0
 36 38  1  0  0  0
 36 72  1  0  0  0
 37 73  1  0  0  0
 38 74  1  0  0  0
 39 75  1  0  0  0
M  END
> <chembl_id>
CHEMBL423704

> <chembl_pref_name>
None

> <s_m_source_file>
sdf/inactives_sanitized.sdf

> <i_m_source_file_index>
90

> <i_lp_mmshare_version>
49012

> <i_m_ct_stereo_status>
1

> <i_f3d_flags>
0

> <s_epik_input>
W2NIXTFbY0hdW2NIXVtjSF1bY0hdYzFbQ0hdKGMyW2NIXVtjSF1bY0hdW2NIXVtjSF0yKUMoPU8pW05IXVtDQEhdKFtDSDJdW0NIXShbQ0gzXSlbQ0gzXSlDKD1PKVtOSF1bQ0BIXShbQ0gyXVtDSDNdKUMoPU8pQyg9TylbTkhdW0NIMl1jM25bY0hdW2NIXVtjSF1bY0hdMw==

> <s_epik_cmdline>
J2VwaWtfcHl0aG9uJywgJy1waHQnLCAnMC41JywgJy1waCcsICc3LjUnLCAnLW50JywgJy1tYScsICcyMDAnLCAnLWltYWUnLCAnPGluZmlsZS5tYWU+JywgJy1vbWFlJywgJzxvdXRmaWxlLm1hZT4n

> <r_lp_tautomer_probability>
1

> <r_epik_Ionization_Penalty>
  0.0012

> <r_epik_Ionization_Penalty_Charging>
  0.0000

> <r_epik_Ionization_Penalty_Neutral>
  0.0012

> <r_epik_State_Penalty>
 -0.0000

> <r_epik_Charging_Adjusted_Penalty>
0

> <i_epik_Tot_Q>
0

> <i_epik_Tot_abs_Q>
0

> <s_lp_Force_Field>
OPLS3e

> <r_lp_Energy>
56.548426

> <b_lp_Chiralities_Consistent>
1

> <s_lp_Variant>
sdf/inactives_sanitized.sdf:90-1

$$$$
sdf/inactives_sanitized.sdf:91
                    3D
 Schrodinger Suite 2020-1.
 64 65  0  0  1  0            999 V2000
    0.0777    0.3708    0.6178 C   0  0  0  0  0  0
   -0.5171    1.4933    0.1686 N   0  0  0  0  0  0
    2.2702    0.9216    2.8256 C   0  0  0  0  0  0
    1.6235    0.3169    0.4815 C   0  0  1  0  0  0
    2.2787    0.0166    1.7688 N   0  0  0  0  0  0
   -2.5520    0.9804   -1.0550 C   0  0  0  0  0  0
   -1.9658    1.7486    0.1280 C   0  0  2  0  0  0
   -0.5308   -0.5881    1.0969 O   0  0  0  0  0  0
    1.7358    2.0338    2.8330 O   0  0  0  0  0  0
    2.9601    0.3928    3.8543 O   0  0  0  0  0  0
   -1.9984    0.9297   -2.1583 O   0  0  0  0  0  0
   -2.2474    3.2678    0.0097 C   0  0  0  0  0  0
    2.0113   -0.7591   -0.5968 C   0  0  2  0  0  0
    3.1227    1.1146    5.0695 C   0  0  0  0  0  0
   -3.7311    3.6832    0.1078 C   0  0  0  0  0  0
   -3.9182    5.1931    0.1324 C   0  0  0  0  0  0
    4.0598    0.3565    5.9921 C   0  0  0  0  0  0
   -3.8927    0.2742   -0.7858 C   0  0  0  0  0  0
   -4.3651   -0.3765   -1.9519 O   0  0  0  0  0  0
    3.5413   -0.7869   -0.8501 C   0  0  0  0  0  0
    1.2643   -0.6278   -1.9494 C   0  0  0  0  0  0
   -3.9295    5.8750    1.3523 C   0  0  0  0  0  0
   -4.0729    5.8962   -1.0657 C   0  0  0  0  0  0
    5.4262    0.3060    5.7044 C   0  0  0  0  0  0
    3.5559   -0.2818    7.1279 C   0  0  0  0  0  0
    4.0310   -2.0219   -1.6226 C   0  0  0  0  0  0
   -4.2415    7.2783   -1.0434 C   0  0  0  0  0  0
    6.2885   -0.3841    6.5526 C   0  0  0  0  0  0
    4.4191   -0.9712    7.9759 C   0  0  0  0  0  0
   -4.0977    7.2572    1.3737 C   0  0  0  0  0  0
   -4.2537    7.9522    0.1762 C   0  0  0  0  0  0
    5.7810   -1.0193    7.6843 C   0  0  0  0  0  0
    0.0607    2.2245   -0.2204 H   0  0  0  0  0  0
    2.0013    1.2788    0.1244 H   0  0  0  0  0  0
    2.7990   -0.8441    1.8566 H   0  0  0  0  0  0
   -2.3991    1.4023    1.0694 H   0  0  0  0  0  0
   -1.7000    3.7812    0.8027 H   0  0  0  0  0  0
   -1.8125    3.6720   -0.9071 H   0  0  0  0  0  0
    1.7439   -1.7371   -0.1901 H   0  0  0  0  0  0
    3.5371    2.1062    4.8796 H   0  0  0  0  0  0
    2.1552    1.2597    5.5531 H   0  0  0  0  0  0
   -4.2984    3.2758   -0.7302 H   0  0  0  0  0  0
   -4.1868    3.2484    0.9989 H   0  0  0  0  0  0
   -3.7577   -0.4620    0.0071 H   0  0  0  0  0  0
   -4.6357    0.9959   -0.4477 H   0  0  0  0  0  0
   -5.1702   -0.8516   -1.7339 H   0  0  0  0  0  0
    3.8327    0.1141   -1.3911 H   0  0  0  0  0  0
    4.0880   -0.7509    0.0918 H   0  0  0  0  0  0
    1.4287    0.3531   -2.3962 H   0  0  0  0  0  0
    0.1893   -0.7692   -1.8416 H   0  0  0  0  0  0
    1.5951   -1.3772   -2.6678 H   0  0  0  0  0  0
   -3.8062    5.3372    2.2812 H   0  0  0  0  0  0
   -4.0613    5.3743   -2.0117 H   0  0  0  0  0  0
    5.8183    0.7993    4.8266 H   0  0  0  0  0  0
    2.5001   -0.2453    7.3551 H   0  0  0  0  0  0
    5.0717   -2.2412   -1.3823 H   0  0  0  0  0  0
    3.9705   -1.8628   -2.6994 H   0  0  0  0  0  0
    3.4448   -2.9091   -1.3809 H   0  0  0  0  0  0
   -4.3614    7.8255   -1.9669 H   0  0  0  0  0  0
    7.3455   -0.4261    6.3342 H   0  0  0  0  0  0
    4.0347   -1.4659    8.8558 H   0  0  0  0  0  0
   -4.1065    7.7882    2.3142 H   0  0  0  0  0  0
   -4.3843    9.0242    0.1935 H   0  0  0  0  0  0
    6.4500   -1.5540    8.3424 H   0  0  0  0  0  0
  1  2  1  0  0  0
  1  4  1  0  0  0
  1  8  2  0  0  0
  2  7  1  0  0  0
  2 33  1  0  0  0
  3  5  1  0  0  0
  3  9  2  0  0  0
  3 10  1  0  0  0
  4  5  1  0  0  0
  4 13  1  0  0  0
  4 34  1  0  0  0
  5 35  1  0  0  0
  6  7  1  0  0  0
  6 11  2  0  0  0
  6 18  1  0  0  0
  7 12  1  0  0  0
  7 36  1  0  0  0
 10 14  1  0  0  0
 12 15  1  0  0  0
 12 37  1  0  0  0
 12 38  1  0  0  0
 13 20  1  0  0  0
 13 21  1  0  0  0
 13 39  1  0  0  0
 14 17  1  0  0  0
 14 40  1  0  0  0
 14 41  1  0  0  0
 15 16  1  0  0  0
 15 42  1  0  0  0
 15 43  1  0  0  0
 16 22  2  0  0  0
 16 23  1  0  0  0
 17 24  2  0  0  0
 17 25  1  0  0  0
 18 19  1  0  0  0
 18 44  1  0  0  0
 18 45  1  0  0  0
 19 46  1  0  0  0
 20 26  1  0  0  0
 20 47  1  0  0  0
 20 48  1  0  0  0
 21 49  1  0  0  0
 21 50  1  0  0  0
 21 51  1  0  0  0
 22 30  1  0  0  0
 22 52  1  0  0  0
 23 27  2  0  0  0
 23 53  1  0  0  0
 24 28  1  0  0  0
 24 54  1  0  0  0
 25 29  2  0  0  0
 25 55  1  0  0  0
 26 56  1  0  0  0
 26 57  1  0  0  0
 26 58  1  0  0  0
 27 31  1  0  0  0
 27 59  1  0  0  0
 28 32  2  0  0  0
 28 60  1  0  0  0
 29 32  1  0  0  0
 29 61  1  0  0  0
 30 31  2  0  0  0
 30 62  1  0  0  0
 31 63  1  0  0  0
 32 64  1  0  0  0
M  END
> <chembl_id>
CHEMBL99561

> <chembl_pref_name>
None

> <i_m_ct_stereo_status>
1

> <s_m_source_file>
sdf/inactives_sanitized.sdf

> <i_m_source_file_index>
91

> <i_lp_mmshare_version>
49012

> <i_f3d_flags>
0

> <s_epik_input>
W2NIXTFbY0hdW2NIXVtjSF1bY0hdYzFbQ0gyXVtDSDJdW0NAQEhdKEMoPU8pW0NIMl1bT0hdKVtOSF1DKD1PKVtDQEhdKFtDQEBIXShbQ0gzXSlbQ0gyXVtDSDNdKVtOSF1DKD1PKU9bQ0gyXWMyW2NIXVtjSF1bY0hdW2NIXVtjSF0y

> <s_epik_cmdline>
J2VwaWtfcHl0aG9uJywgJy1waHQnLCAnMC41JywgJy1waCcsICc3LjUnLCAnLW50JywgJy1tYScsICcyMDAnLCAnLWltYWUnLCAnPGluZmlsZS5tYWU+JywgJy1vbWFlJywgJzxvdXRmaWxlLm1hZT4n

> <r_lp_tautomer_probability>
1

> <r_epik_Ionization_Penalty>
  0.0001

> <r_epik_Ionization_Penalty_Charging>
  0.0000

> <r_epik_Ionization_Penalty_Neutral>
  0.0001

> <r_epik_State_Penalty>
 -0.0000

> <r_epik_Charging_Adjusted_Penalty>
0

> <i_epik_Tot_Q>
0

> <i_epik_Tot_abs_Q>
0

> <s_epik_Chemistry_Notes>
This compound has an ester and may undergo hydrolysis at high or low pH.

> <s_lp_Force_Field>
OPLS3e

> <r_lp_Energy>
43.511609

> <b_lp_Chiralities_Consistent>
1

> <s_lp_Variant>
sdf/inactives_sanitized.sdf:91-1

$$$$
sdf/inactives_sanitized.sdf:92
                    3D
 Schrodinger Suite 2020-1.
 22 23  0  0  1  0            999 V2000
   -0.6270    1.1891    0.0000 N   0  0  0  0  0  0
    0.0209    0.0046   -0.0000 C   0  0  0  0  0  0
   -0.6386   -1.2145   -0.0000 C   0  0  0  0  0  0
   -2.0282   -1.2239   -0.0000 C   0  0  0  0  0  0
   -2.7773   -0.0021   -0.0000 C   0  0  0  0  0  0
   -4.2261    0.0885   -0.0000 C   0  0  0  0  0  0
   -4.7998    1.3679   -0.0000 C   0  0  0  0  0  0
   -4.0445    2.5269   -0.0000 C   0  0  0  0  0  0
   -2.6591    2.4768    0.0000 C   0  0  0  0  0  0
   -1.9975    1.2105   -0.0000 C   0  0  0  0  0  0
   -2.0272    3.5843    0.0000 O   0  5  0  0  0  0
   -5.1569   -1.0836   -0.0000 N   0  3  0  0  0  0
   -6.3670   -0.8694   -0.0000 O   0  0  0  0  0  0
   -4.7271   -2.2284    0.0000 O   0  5  0  0  0  0
    1.5362    0.0841    0.0000 C   0  0  0  0  0  0
   -0.0885   -2.1444   -0.0000 H   0  0  0  0  0  0
   -2.4924   -2.1920   -0.0000 H   0  0  0  0  0  0
   -5.8732    1.4882   -0.0000 H   0  0  0  0  0  0
   -4.5565    3.4793   -0.0000 H   0  0  0  0  0  0
    1.9925   -0.9066    0.0000 H   0  0  0  0  0  0
    1.8895    0.6167    0.8838 H   0  0  0  0  0  0
    1.8895    0.6167   -0.8838 H   0  0  0  0  0  0
  1  2  2  0  0  0
  1 10  1  0  0  0
  2  3  1  0  0  0
  2 15  1  0  0  0
  3  4  2  0  0  0
  3 16  1  0  0  0
  4  5  1  0  0  0
  4 17  1  0  0  0
  5  6  2  0  0  0
  5 10  1  0  0  0
  6  7  1  0  0  0
  6 12  1  0  0  0
  7  8  2  0  0  0
  7 18  1  0  0  0
  8  9  1  0  0  0
  8 19  1  0  0  0
  9 10  2  0  0  0
  9 11  1  0  0  0
 12 13  2  0  0  0
 12 14  1  0  0  0
 15 20  1  0  0  0
 15 21  1  0  0  0
 15 22  1  0  0  0
M  CHG  3  11  -1  12   1  14  -1
M  END
> <chembl_id>
CHEMBL4229176

> <chembl_pref_name>
None

> <s_m_source_file>
sdf/inactives_sanitized.sdf

> <i_m_source_file_index>
92

> <i_lp_mmshare_version>
49012

> <i_m_ct_stereo_status>
1

> <i_f3d_flags>
0

> <s_epik_input>
W2NIXTFbY0hdYyhbQ0gzXSluYyhjMTIpYyhbT0hdKVtjSF1bY0hdYzJbTitdKD1PKVtPLV0=

> <s_epik_cmdline>
J2VwaWtfcHl0aG9uJywgJy1waHQnLCAnMC41JywgJy1waCcsICc3LjUnLCAnLW50JywgJy1tYScsICcyMDAnLCAnLWltYWUnLCAnPGluZmlsZS5tYWU+JywgJy1vbWFlJywgJzxvdXRmaWxlLm1hZT4n

> <r_lp_tautomer_probability>
1

> <r_epik_Ionization_Penalty>
  0.0011

> <r_epik_Ionization_Penalty_Charging>
  0.0011

> <r_epik_Ionization_Penalty_Neutral>
  0.0000

> <r_epik_State_Penalty>
 -0.0000

> <r_epik_Charging_Adjusted_Penalty>
0.00110270300878238

> <i_epik_Tot_Q>
-1

> <i_epik_Tot_abs_Q>
3

> <s_lp_Force_Field>
OPLS3e

> <r_lp_Energy>
28.941295

> <b_lp_Chiralities_Consistent>
1

> <s_lp_Variant>
sdf/inactives_sanitized.sdf:92-1

$$$$
sdf/inactives_sanitized.sdf:93
                    3D
 Schrodinger Suite 2020-1.
 30 31  0  0  1  0            999 V2000
   -3.3342    2.2985   -1.1229 N   0  0  0  0  0  0
   -4.6586    2.1865   -0.8747 C   0  0  0  0  0  0
   -5.2247    1.0896   -0.2422 C   0  0  0  0  0  0
   -4.3952    0.0463    0.1515 C   0  0  0  0  0  0
   -2.9933    0.1111   -0.0975 C   0  0  0  0  0  0
   -2.0896   -0.9272    0.2759 C   0  0  0  0  0  0
   -0.7276   -0.7653    0.0354 C   0  0  0  0  0  0
   -0.2084    0.3762   -0.5717 C   0  0  0  0  0  0
   -1.0775    1.4085   -0.9863 C   0  0  0  0  0  0
   -2.4872    1.2879   -0.7425 C   0  0  0  0  0  0
    1.2891    0.4291   -0.7830 C   0  0  0  0  0  0
    1.7967   -0.3552   -1.5878 O   0  0  0  0  0  0
    2.0023    1.3479   -0.0801 N   0  0  0  0  0  0
   -2.5492   -2.1760    0.9107 N   0  3  0  0  0  0
   -2.0239   -2.5046    1.9697 O   0  0  0  0  0  0
   -3.4072   -2.8370    0.3342 O   0  5  0  0  0  0
    3.4546    1.4675   -0.2327 C   0  0  0  0  0  0
   -0.6191    2.4494   -1.5770 O   0  5  0  0  0  0
    1.4641    2.1203    1.0464 C   0  0  0  0  0  0
    1.6827    1.4394    2.3339 C   0  0  0  0  0  0
    1.8547    0.9043    3.3453 N   0  0  0  0  0  0
   -5.2758    3.0131   -1.1944 H   0  0  0  0  0  0
   -6.2882    1.0473   -0.0586 H   0  0  0  0  0  0
   -4.8256   -0.8075    0.6522 H   0  0  0  0  0  0
   -0.0564   -1.5605    0.3324 H   0  0  0  0  0  0
    3.8394    0.9347   -1.1035 H   0  0  0  0  0  0
    3.9592    1.0776    0.6518 H   0  0  0  0  0  0
    3.7310    2.5163   -0.3435 H   0  0  0  0  0  0
    0.3926    2.2945    0.9673 H   0  0  0  0  0  0
    1.9327    3.1042    1.0864 H   0  0  0  0  0  0
  1  2  2  0  0  0
  1 10  1  0  0  0
  2  3  1  0  0  0
  2 22  1  0  0  0
  3  4  2  0  0  0
  3 23  1  0  0  0
  4  5  1  0  0  0
  4 24  1  0  0  0
  5  6  2  0  0  0
  5 10  1  0  0  0
  6  7  1  0  0  0
  6 14  1  0  0  0
  7  8  2  0  0  0
  7 25  1  0  0  0
  8  9  1  0  0  0
  8 11  1  0  0  0
  9 10  2  0  0  0
  9 18  1  0  0  0
 11 12  2  0  0  0
 11 13  1  0  0  0
 13 17  1  0  0  0
 13 19  1  0  0  0
 14 15  2  0  0  0
 14 16  1  0  0  0
 17 26  1  0  0  0
 17 27  1  0  0  0
 17 28  1  0  0  0
 19 20  1  0  0  0
 19 29  1  0  0  0
 19 30  1  0  0  0
 20 21  3  0  0  0
M  CHG  3  14   1  16  -1  18  -1
M  END
> <chembl_id>
CHEMBL4226694

> <chembl_pref_name>
None

> <s_m_source_file>
sdf/inactives_sanitized.sdf

> <i_m_source_file_index>
93

> <i_lp_mmshare_version>
49012

> <i_m_ct_stereo_status>
1

> <i_f3d_flags>
0

> <s_epik_input>
W2NIXTFbY0hdW2NIXW5jKGMxMiljKFtPSF0pYyhbY0hdYzJbTitdKD1PKVtPLV0pQyg9TylOKFtDSDNdKVtDSDJdQyNO

> <s_epik_cmdline>
J2VwaWtfcHl0aG9uJywgJy1waHQnLCAnMC41JywgJy1waCcsICc3LjUnLCAnLW50JywgJy1tYScsICcyMDAnLCAnLWltYWUnLCAnPGluZmlsZS5tYWU+JywgJy1vbWFlJywgJzxvdXRmaWxlLm1hZT4n

> <r_lp_tautomer_probability>
1

> <r_epik_Ionization_Penalty>
  0.0000

> <r_epik_Ionization_Penalty_Charging>
  0.0000

> <r_epik_Ionization_Penalty_Neutral>
  0.0000

> <r_epik_State_Penalty>
 -0.0000

> <r_epik_Charging_Adjusted_Penalty>
3.09834044759335e-06

> <i_epik_Tot_Q>
-1

> <i_epik_Tot_abs_Q>
3

> <s_lp_Force_Field>
OPLS3e

> <r_lp_Energy>
37.702644

> <b_lp_Chiralities_Consistent>
1

> <s_lp_Variant>
sdf/inactives_sanitized.sdf:93-1

$$$$
sdf/inactives_sanitized.sdf:94
                    3D
 Schrodinger Suite 2020-1.
 73 76  0  0  1  0            999 V2000
    5.2289    2.6490    2.8860 C   0  0  0  0  0  0
   -1.2174   -1.9057   -2.2157 O   0  0  0  0  0  0
   -0.8140   -0.7681   -1.6053 C   0  0  0  0  0  0
   -0.3184   -1.0845   -0.3445 N   0  0  0  0  0  0
   -0.8740    0.3581   -2.1061 O   0  0  0  0  0  0
    0.2067   -0.0404    0.5469 C   0  0  2  0  0  0
    1.6822    0.2882    0.2320 C   0  0  0  0  0  0
    1.9192    1.5150   -0.2625 N   0  0  0  0  0  0
    2.5584   -0.5424    0.4775 O   0  0  0  0  0  0
    3.2456    2.0948   -0.4742 C   0  0  2  0  0  0
    3.7735    2.6831    0.8252 C   0  0  0  0  0  0
    3.2386    3.1190   -1.6327 C   0  0  0  0  0  0
    4.7181    2.1131    1.5975 C   0  0  0  0  0  0
   -0.0614   -0.4242    2.0263 C   0  0  0  0  0  0
    0.4922    0.5336    3.0741 C   0  0  0  0  0  0
    1.7451    0.2884    3.6777 C   0  0  0  0  0  0
    2.2894    1.2186    4.5532 C   0  0  0  0  0  0
    1.6212    2.4077    4.8150 C   0  0  0  0  0  0
    0.4045    2.6792    4.2013 C   0  0  0  0  0  0
   -0.1595    1.7593    3.3267 C   0  0  0  0  0  0
    5.7911    1.8041    3.8092 N   0  3  0  0  0  0
    6.2515    2.2587    5.0043 C   0  0  0  0  0  0
    6.1488    3.6086    5.3377 C   0  0  0  0  0  0
    5.5721    4.4926    4.4303 C   0  0  0  0  0  0
    5.1107    4.0118    3.2059 C   0  0  0  0  0  0
   -1.7664   -1.8990   -3.5346 C   0  0  0  0  0  0
   -3.1891   -1.3519   -3.5549 C   0  0  0  0  0  0
   -3.4791   -0.1987   -4.2881 C   0  0  0  0  0  0
   -4.7783    0.3022   -4.3082 C   0  0  0  0  0  0
   -5.7816   -0.3528   -3.5965 C   0  0  0  0  0  0
   -5.4981   -1.5043   -2.8646 C   0  0  0  0  0  0
   -4.1992   -2.0056   -2.8440 C   0  0  0  0  0  0
    2.6901    2.5614   -2.9432 C   0  0  0  0  0  0
    3.5187    1.8079   -3.7793 C   0  0  0  0  0  0
    3.0134    1.2773   -4.9635 C   0  0  0  0  0  0
    1.6817    1.5010   -5.3075 C   0  0  0  0  0  0
    0.8508    2.2523   -4.4792 C   0  0  0  0  0  0
    1.3557    2.7847   -3.2960 C   0  0  0  0  0  0
    5.9221    0.3490    3.5402 C   0  0  0  0  0  0
   -0.2686   -2.0497   -0.0526 H   0  0  0  0  0  0
   -0.3729    0.8750    0.3933 H   0  0  0  0  0  0
    1.1339    2.1336   -0.4053 H   0  0  0  0  0  0
    3.9240    1.2966   -0.7883 H   0  0  0  0  0  0
    3.3154    3.6134    1.1277 H   0  0  0  0  0  0
    2.6596    4.0013   -1.3527 H   0  0  0  0  0  0
    4.2500    3.4897   -1.8087 H   0  0  0  0  0  0
    5.1387    1.1820    1.2477 H   0  0  0  0  0  0
   -1.1390   -0.4979    2.1836 H   0  0  0  0  0  0
    0.3314   -1.4218    2.2318 H   0  0  0  0  0  0
    2.2849   -0.6216    3.4596 H   0  0  0  0  0  0
    3.2405    1.0210    5.0250 H   0  0  0  0  0  0
    2.0546    3.1289    5.4924 H   0  0  0  0  0  0
   -0.1016    3.6125    4.3996 H   0  0  0  0  0  0
   -1.0957    1.9869    2.8380 H   0  0  0  0  0  0
    6.6896    1.5342    5.6766 H   0  0  0  0  0  0
    6.5122    3.9658    6.2904 H   0  0  0  0  0  0
    5.4841    5.5420    4.6720 H   0  0  0  0  0  0
    4.6706    4.7097    2.5092 H   0  0  0  0  0  0
   -1.1248   -1.3332   -4.2129 H   0  0  0  0  0  0
   -1.7861   -2.9223   -3.9105 H   0  0  0  0  0  0
   -2.7008    0.3115   -4.8371 H   0  0  0  0  0  0
   -5.0068    1.1945   -4.8722 H   0  0  0  0  0  0
   -6.7892    0.0362   -3.6122 H   0  0  0  0  0  0
   -6.2820   -2.0054   -2.3158 H   0  0  0  0  0  0
   -3.9780   -2.8975   -2.2759 H   0  0  0  0  0  0
    4.5492    1.6274   -3.5096 H   0  0  0  0  0  0
    3.6501    0.6921   -5.6109 H   0  0  0  0  0  0
    1.2895    1.0865   -6.2246 H   0  0  0  0  0  0
   -0.1817    2.4171   -4.7504 H   0  0  0  0  0  0
    0.7065    3.3588   -2.6511 H   0  0  0  0  0  0
    6.2623   -0.1762    4.4344 H   0  0  0  0  0  0
    6.6489    0.2274    2.7357 H   0  0  0  0  0  0
    4.9405   -0.0314    3.2527 H   0  0  0  0  0  0
  1 13  1  0  0  0
  1 21  2  0  0  0
  1 25  1  0  0  0
  2  3  1  0  0  0
  2 26  1  0  0  0
  3  4  1  0  0  0
  3  5  2  0  0  0
  4  6  1  0  0  0
  4 40  1  0  0  0
  6  7  1  0  0  0
  6 14  1  0  0  0
  6 41  1  0  0  0
  7  8  1  0  0  0
  7  9  2  0  0  0
  8 10  1  0  0  0
  8 42  1  0  0  0
 10 11  1  0  0  0
 10 12  1  0  0  0
 10 43  1  0  0  0
 11 13  2  0  0  0
 11 44  1  0  0  0
 12 33  1  0  0  0
 12 45  1  0  0  0
 12 46  1  0  0  0
 13 47  1  0  0  0
 14 15  1  0  0  0
 14 48  1  0  0  0
 14 49  1  0  0  0
 15 16  2  0  0  0
 15 20  1  0  0  0
 16 17  1  0  0  0
 16 50  1  0  0  0
 17 18  2  0  0  0
 17 51  1  0  0  0
 18 19  1  0  0  0
 18 52  1  0  0  0
 19 20  2  0  0  0
 19 53  1  0  0  0
 20 54  1  0  0  0
 21 22  1  0  0  0
 21 39  1  0  0  0
 22 23  2  0  0  0
 22 55  1  0  0  0
 23 24  1  0  0  0
 23 56  1  0  0  0
 24 25  2  0  0  0
 24 57  1  0  0  0
 25 58  1  0  0  0
 26 27  1  0  0  0
 26 59  1  0  0  0
 26 60  1  0  0  0
 27 28  2  0  0  0
 27 32  1  0  0  0
 28 29  1  0  0  0
 28 61  1  0  0  0
 29 30  2  0  0  0
 29 62  1  0  0  0
 30 31  1  0  0  0
 30 63  1  0  0  0
 31 32  2  0  0  0
 31 64  1  0  0  0
 32 65  1  0  0  0
 33 34  2  0  0  0
 33 38  1  0  0  0
 34 35  1  0  0  0
 34 66  1  0  0  0
 35 36  2  0  0  0
 35 67  1  0  0  0
 36 37  1  0  0  0
 36 68  1  0  0  0
 37 38  2  0  0  0
 37 69  1  0  0  0
 38 70  1  0  0  0
 39 71  1  0  0  0
 39 72  1  0  0  0
 39 73  1  0  0  0
M  CHG  1  21   1
M  END
> <chembl_id>
CHEMBL4453372

> <chembl_pref_name>
None

> <i_m_ct_stereo_status>
1

> <s_m_source_file>
sdf/inactives_sanitized.sdf

> <i_m_source_file_index>
94

> <i_lp_mmshare_version>
49012

> <i_f3d_flags>
0

> <s_epik_input>
W2NIXTFbY0hdW2NIXVtjSF1bbitdKFtDSDNdKWMxXFtDSF09W0NIXVxbQ0BIXShbQ0gyXWMyW2NIXVtjSF1bY0hdW2NIXVtjSF0yKVtOSF1DKD1PKVtDQEhdKFtDSDJdYzNbY0hdW2NIXVtjSF1bY0hdW2NIXTMpW05IXUMoPU8pT1tDSDJdYzRbY0hdW2NIXVtjSF1bY0hdW2NIXTQ=

> <s_epik_cmdline>
J2VwaWtfcHl0aG9uJywgJy1waHQnLCAnMC41JywgJy1waCcsICc3LjUnLCAnLW50JywgJy1tYScsICcyMDAnLCAnLWltYWUnLCAnPGluZmlsZS5tYWU+JywgJy1vbWFlJywgJzxvdXRmaWxlLm1hZT4n

> <r_lp_tautomer_probability>
1

> <r_epik_Ionization_Penalty>
  0.0000

> <r_epik_Ionization_Penalty_Charging>
  0.0000

> <r_epik_Ionization_Penalty_Neutral>
  0.0000

> <r_epik_State_Penalty>
 -0.0000

> <r_epik_Charging_Adjusted_Penalty>
0

> <i_epik_Tot_Q>
1

> <i_epik_Tot_abs_Q>
1

> <s_epik_Chemistry_Notes>
This compound has an ester and may undergo hydrolysis at high or low pH.

> <s_lp_Force_Field>
OPLS3e

> <r_lp_Energy>
55.287124

> <b_lp_Chiralities_Consistent>
1

> <s_lp_Variant>
sdf/inactives_sanitized.sdf:94-1

$$$$
sdf/inactives_sanitized.sdf:95
                    3D
 Schrodinger Suite 2020-1.
 42 42  0  0  1  0            999 V2000
    1.9862   -2.6343    0.9214 O   0  0  0  0  0  0
    2.3636   -1.8373   -0.2506 S   0  0  0  0  0  0
    1.9924   -2.2934   -1.5946 O   0  0  0  0  0  0
    0.1264   -0.0451    0.1082 C   0  0  2  0  0  0
   -0.3642    1.4038    0.3174 C   0  0  0  0  0  0
   -0.9005    1.6868    1.5155 N   0  0  0  0  0  0
   -0.2266    2.2319   -0.5844 O   0  0  0  0  0  0
   -1.4758    2.9819    1.8632 C   0  0  0  0  0  0
   -2.6983    3.2868    1.0985 C   0  0  0  0  0  0
   -3.6586    3.5262    0.4987 N   0  0  0  0  0  0
    1.6666   -0.0934   -0.0153 C   0  0  0  0  0  0
   -0.5344   -0.6787   -1.0372 N   0  0  0  0  0  0
   -1.8430   -0.9846   -1.1309 C   0  0  0  0  0  0
   -2.2213   -1.5987   -2.3816 C   0  0  0  0  0  0
    4.2401   -1.5697   -0.2061 C   0  0  0  0  0  0
    5.0231   -2.9003   -0.1225 C   0  0  0  0  0  0
   -2.6636   -0.7669   -0.2367 O   0  0  0  0  0  0
   -3.9034   -1.9059   -2.7301 S   0  0  0  0  0  0
   -3.4938   -2.6130   -4.2591 C   0  0  0  0  0  0
   -2.1250   -2.6231   -4.4792 C   0  0  0  0  0  0
   -1.4044   -2.0606   -3.4204 C   0  0  0  0  0  0
    6.5117   -2.6400    0.1694 C   0  0  0  0  0  0
    4.8532   -3.7840   -1.3729 C   0  0  0  0  0  0
   -0.1382   -0.6417    0.9845 H   0  0  0  0  0  0
   -0.9981    0.9472    2.1962 H   0  0  0  0  0  0
   -1.7325    2.9828    2.9225 H   0  0  0  0  0  0
   -0.7521    3.7842    1.7085 H   0  0  0  0  0  0
    2.1345    0.3170    0.8804 H   0  0  0  0  0  0
    2.0201    0.5137   -0.8502 H   0  0  0  0  0  0
    0.0669   -0.8923   -1.8194 H   0  0  0  0  0  0
    4.5147   -0.9879   -1.0864 H   0  0  0  0  0  0
    4.4429   -0.9487    0.6667 H   0  0  0  0  0  0
    4.6277   -3.4641    0.7240 H   0  0  0  0  0  0
   -4.2695   -2.9862   -4.9112 H   0  0  0  0  0  0
   -1.6646   -3.0257   -5.3693 H   0  0  0  0  0  0
   -0.3259   -1.9940   -3.4175 H   0  0  0  0  0  0
    6.9839   -2.0780   -0.6375 H   0  0  0  0  0  0
    7.0621   -3.5744    0.2879 H   0  0  0  0  0  0
    6.6421   -2.0704    1.0903 H   0  0  0  0  0  0
    5.1517   -3.2560   -2.2791 H   0  0  0  0  0  0
    3.8218   -4.1103   -1.5003 H   0  0  0  0  0  0
    5.4599   -4.6876   -1.3025 H   0  0  0  0  0  0
  1  2  2  0  0  0
  2 11  1  0  0  0
  2 15  1  0  0  0
  2  3  2  0  0  0
  4  5  1  0  0  0
  4 11  1  0  0  0
  4 12  1  0  0  0
  4 24  1  0  0  0
  5  7  2  0  0  0
  5  6  1  0  0  0
  6  8  1  0  0  0
  6 25  1  0  0  0
  8  9  1  0  0  0
  8 26  1  0  0  0
  8 27  1  0  0  0
  9 10  3  0  0  0
 11 28  1  0  0  0
 11 29  1  0  0  0
 12 13  1  0  0  0
 12 30  1  0  0  0
 13 14  1  0  0  0
 13 17  2  0  0  0
 14 18  1  0  0  0
 14 21  2  0  0  0
 15 16  1  0  0  0
 15 31  1  0  0  0
 15 32  1  0  0  0
 16 22  1  0  0  0
 16 23  1  0  0  0
 16 33  1  0  0  0
 18 19  1  0  0  0
 19 20  2  0  0  0
 19 34  1  0  0  0
 20 21  1  0  0  0
 20 35  1  0  0  0
 21 36  1  0  0  0
 22 37  1  0  0  0
 22 38  1  0  0  0
 22 39  1  0  0  0
 23 40  1  0  0  0
 23 41  1  0  0  0
 23 42  1  0  0  0
M  END
> <chembl_id>
CHEMBL2153163

> <chembl_pref_name>
None

> <s_m_source_file>
sdf/inactives_sanitized.sdf

> <i_m_source_file_index>
95

> <i_lp_mmshare_version>
49012

> <i_m_ct_stereo_status>
1

> <i_f3d_flags>
0

> <s_epik_input>
TiNDW0NIMl1bTkhdQyg9TylbQ0BIXShbQ0gyXVMoPU8pKD1PKVtDSDJdW0NIXShbQ0gzXSlbQ0gzXSlbTkhdQyg9TyljMXNbY0hdW2NIXVtjSF0x

> <s_epik_cmdline>
J2VwaWtfcHl0aG9uJywgJy1waHQnLCAnMC41JywgJy1waCcsICc3LjUnLCAnLW50JywgJy1tYScsICcyMDAnLCAnLWltYWUnLCAnPGluZmlsZS5tYWU+JywgJy1vbWFlJywgJzxvdXRmaWxlLm1hZT4n

> <r_lp_tautomer_probability>
1

> <r_epik_Ionization_Penalty>
  0.0002

> <r_epik_Ionization_Penalty_Charging>
  0.0000

> <r_epik_Ionization_Penalty_Neutral>
  0.0002

> <r_epik_State_Penalty>
 -0.0000

> <r_epik_Charging_Adjusted_Penalty>
0

> <i_epik_Tot_Q>
0

> <i_epik_Tot_abs_Q>
0

> <s_lp_Force_Field>
OPLS3e

> <r_lp_Energy>
-2.689695

> <b_lp_Chiralities_Consistent>
1

> <s_lp_Variant>
sdf/inactives_sanitized.sdf:95-1

$$$$
sdf/inactives_sanitized.sdf:96
                    3D
 Schrodinger Suite 2020-1.
 46 47  0  0  1  0            999 V2000
    1.7184   -2.6023    1.2273 O   0  0  0  0  0  0
    2.2203   -1.8349    0.0826 S   0  0  0  0  0  0
    2.0431   -2.3524   -1.2786 O   0  0  0  0  0  0
   -0.1017   -0.1194    0.0892 C   0  0  2  0  0  0
   -0.6672    1.3126    0.2039 C   0  0  0  0  0  0
   -1.3941    1.5822    1.3007 N   0  0  0  0  0  0
   -0.4138    2.1414   -0.6719 O   0  0  0  0  0  0
   -2.0423    2.8648    1.5543 C   0  0  0  0  0  0
   -3.1184    3.1646    0.5924 C   0  0  0  0  0  0
   -3.9634    3.4006   -0.1623 N   0  0  0  0  0  0
    1.4425   -0.1119    0.1614 C   0  0  0  0  0  0
   -0.5906   -0.8001   -1.1140 N   0  0  0  0  0  0
   -1.8630   -1.1717   -1.3548 C   0  0  0  0  0  0
   -2.0613   -1.8279   -2.6260 C   0  0  0  0  0  0
    4.0664   -1.4964    0.3487 C   0  0  0  0  0  0
    4.9397   -2.7388    0.0590 C   0  0  0  0  0  0
   -2.7920   -0.9806   -0.5669 O   0  0  0  0  0  0
   -3.6599   -2.3094   -3.1229 S   0  0  0  0  0  0
   -3.0676   -2.9782   -4.6256 C   0  0  0  0  0  0
   -1.6825   -2.8215   -4.7011 C   0  0  0  0  0  0
   -1.1189   -2.1869   -3.5905 C   0  0  0  0  0  0
   -3.9656   -3.5999   -5.6167 C   0  0  0  0  0  0
   -3.5336   -4.0696   -6.7664 N   0  5  0  0  0  0
   -4.6490   -4.5599   -7.4033 N   0  0  0  0  0  0
   -5.7231   -4.3527   -6.5789 N   0  0  0  0  0  0
   -5.2617   -3.7370   -5.4395 N   0  0  0  0  0  0
    4.6762   -3.9053    1.0301 C   0  0  0  0  0  0
    6.4323   -2.3640    0.0409 C   0  0  0  0  0  0
   -0.4532   -0.7102    0.9387 H   0  0  0  0  0  0
   -1.5799    0.8400    1.9599 H   0  0  0  0  0  0
   -2.4790    2.8491    2.5529 H   0  0  0  0  0  0
   -1.3147    3.6782    1.5356 H   0  0  0  0  0  0
    1.8774    0.4809   -0.6446 H   0  0  0  0  0  0
    1.7799    0.3444    1.0929 H   0  0  0  0  0  0
    0.1086   -0.9985   -1.8146 H   0  0  0  0  0  0
    4.3295   -0.6766   -0.3202 H   0  0  0  0  0  0
    4.1958   -1.1349    1.3691 H   0  0  0  0  0  0
    4.6890   -3.0928   -0.9423 H   0  0  0  0  0  0
   -1.0948   -3.1618   -5.5409 H   0  0  0  0  0  0
   -0.0587   -1.9989   -3.5007 H   0  0  0  0  0  0
    4.8257   -3.6033    2.0674 H   0  0  0  0  0  0
    5.3455   -4.7430    0.8304 H   0  0  0  0  0  0
    3.6608   -4.2885    0.9364 H   0  0  0  0  0  0
    6.7643   -2.0010    1.0144 H   0  0  0  0  0  0
    6.6360   -1.5822   -0.6919 H   0  0  0  0  0  0
    7.0530   -3.2215   -0.2216 H   0  0  0  0  0  0
  1  2  2  0  0  0
  2 15  1  0  0  0
  2  3  2  0  0  0
  2 11  1  0  0  0
  4  5  1  0  0  0
  4 11  1  0  0  0
  4 12  1  0  0  0
  4 29  1  0  0  0
  5  6  1  0  0  0
  5  7  2  0  0  0
  6  8  1  0  0  0
  6 30  1  0  0  0
  8  9  1  0  0  0
  8 31  1  0  0  0
  8 32  1  0  0  0
  9 10  3  0  0  0
 11 33  1  0  0  0
 11 34  1  0  0  0
 12 13  1  0  0  0
 12 35  1  0  0  0
 13 17  2  0  0  0
 13 14  1  0  0  0
 14 18  1  0  0  0
 14 21  2  0  0  0
 15 16  1  0  0  0
 15 36  1  0  0  0
 15 37  1  0  0  0
 16 27  1  0  0  0
 16 28  1  0  0  0
 16 38  1  0  0  0
 18 19  1  0  0  0
 19 20  2  0  0  0
 19 22  1  0  0  0
 20 21  1  0  0  0
 20 39  1  0  0  0
 21 40  1  0  0  0
 22 23  1  0  0  0
 22 26  2  0  0  0
 23 24  1  0  0  0
 24 25  2  0  0  0
 25 26  1  0  0  0
 27 41  1  0  0  0
 27 42  1  0  0  0
 27 43  1  0  0  0
 28 44  1  0  0  0
 28 45  1  0  0  0
 28 46  1  0  0  0
M  CHG  1  23  -1
M  END
> <chembl_id>
CHEMBL2153167

> <chembl_pref_name>
None

> <s_m_source_file>
sdf/inactives_sanitized.sdf

> <i_m_source_file_index>
96

> <i_lp_mmshare_version>
49012

> <i_m_ct_stereo_status>
1

> <i_f3d_flags>
0

> <s_epik_input>
TiNDW0NIMl1bTkhdQyg9TylbQ0BIXShbQ0gyXVMoPU8pKD1PKVtDSDJdW0NIXShbQ0gzXSlbQ0gzXSlbTkhdQyg9TyljMXNjKFtjSF1bY0hdMSktYzJbbkhdbm5uMg==

> <s_epik_cmdline>
J2VwaWtfcHl0aG9uJywgJy1waHQnLCAnMC41JywgJy1waCcsICc3LjUnLCAnLW50JywgJy1tYScsICcyMDAnLCAnLWltYWUnLCAnPGluZmlsZS5tYWU+JywgJy1vbWFlJywgJzxvdXRmaWxlLm1hZT4n

> <r_lp_tautomer_probability>
1

> <r_epik_Ionization_Penalty>
  0.0004

> <r_epik_Ionization_Penalty_Charging>
  0.0002

> <r_epik_Ionization_Penalty_Neutral>
  0.0002

> <r_epik_State_Penalty>
 -0.0000

> <r_epik_Charging_Adjusted_Penalty>
0.000241266251638434

> <i_epik_Tot_Q>
-1

> <i_epik_Tot_abs_Q>
1

> <s_lp_Force_Field>
OPLS3e

> <r_lp_Energy>
-1.792006

> <b_lp_Chiralities_Consistent>
1

> <s_lp_Variant>
sdf/inactives_sanitized.sdf:96-1

$$$$
sdf/inactives_sanitized.sdf:97
                    3D
 Schrodinger Suite 2020-1.
 68 71  0  0  1  0            999 V2000
   -2.6336    3.4435   -0.4406 C   0  0  0  0  0  0
   -2.4389    3.4118    0.8277 N   0  0  0  0  0  0
   -0.5040    1.2641   -0.2128 N   0  0  0  0  0  0
   -0.8009    1.5590    1.0970 C   0  0  0  0  0  0
   -1.1467    3.0437    1.3933 C   0  0  1  0  0  0
   -1.5854    3.1559   -1.4663 C   0  0  0  0  0  0
   -0.5677    2.1594   -1.3313 C   0  0  0  0  0  0
    0.3394    2.0118   -2.3996 C   0  0  0  0  0  0
    0.3066    2.8208   -3.5279 C   0  0  0  0  0  0
   -0.6571    3.8083   -3.6342 C   0  0  0  0  0  0
   -1.5860    3.9708   -2.6157 C   0  0  0  0  0  0
   -0.7707    0.7483    2.0288 O   0  0  0  0  0  0
   -0.0168    4.1038    1.1533 C   0  0  0  0  0  0
    1.3943    3.5708    1.5217 N   0  3  0  0  0  0
   -0.0195   -0.1294   -0.4375 C   0  0  0  0  0  0
    1.4635   -0.3009   -0.0251 C   0  0  0  0  0  0
    1.8714   -1.5681    0.1582 N   0  0  0  0  0  0
    2.1989    0.6745    0.1539 O   0  0  0  0  0  0
    3.1971   -1.9528    0.6509 C   0  0  0  0  0  0
    3.4729   -1.7108    2.1334 C   0  0  0  0  0  0
    2.6082   -1.2053    3.0402 C   0  0  0  0  0  0
    2.9573   -0.9829    4.4368 C   0  0  0  0  0  0
    1.8706   -0.4091    5.3406 C   0  0  0  0  0  0
    4.0685   -1.2227    4.9100 O   0  0  0  0  0  0
   -3.9922    3.7877   -0.9245 C   0  0  0  0  0  0
   -4.5756    3.0582   -1.9714 C   0  0  0  0  0  0
   -5.8524    3.3785   -2.4250 C   0  0  0  0  0  0
   -6.5536    4.4253   -1.8326 C   0  0  0  0  0  0
   -5.9909    5.1538   -0.7880 C   0  0  0  0  0  0
   -4.7142    4.8354   -0.3325 C   0  0  0  0  0  0
    1.5594    3.3765    3.0485 C   0  0  0  0  0  0
    2.9430    2.7626    3.3220 C   0  0  0  0  0  0
    4.0794    3.6119    2.7295 C   0  0  0  0  0  0
    3.8668    3.8778    1.2300 C   0  0  0  0  0  0
    2.4885    4.4979    0.9436 C   0  0  0  0  0  0
   -1.3119    3.0695    2.4717 H   0  0  0  0  0  0
    1.1160    1.2633   -2.3617 H   0  0  0  0  0  0
    1.0309    2.6822   -4.3171 H   0  0  0  0  0  0
   -0.6873    4.4472   -4.5046 H   0  0  0  0  0  0
   -2.3164    4.7587   -2.7377 H   0  0  0  0  0  0
    0.0643    4.4021    0.1094 H   0  0  0  0  0  0
   -0.1627    5.0081    1.7468 H   0  0  0  0  0  0
   -0.6405   -0.8459    0.1041 H   0  0  0  0  0  0
   -0.1258   -0.4019   -1.4877 H   0  0  0  0  0  0
    1.2017   -2.3153    0.0439 H   0  0  0  0  0  0
    3.3160   -3.0228    0.4793 H   0  0  0  0  0  0
    3.9771   -1.4866    0.0460 H   0  0  0  0  0  0
    4.4733   -1.9799    2.4442 H   0  0  0  0  0  0
    1.6012   -0.9351    2.7577 H   0  0  0  0  0  0
    1.0220   -1.0914    5.3908 H   0  0  0  0  0  0
    1.5200    0.5472    4.9523 H   0  0  0  0  0  0
    2.2469   -0.2530    6.3518 H   0  0  0  0  0  0
   -4.0479    2.2380   -2.4382 H   0  0  0  0  0  0
   -6.2984    2.8159   -3.2319 H   0  0  0  0  0  0
   -7.5442    4.6723   -2.1852 H   0  0  0  0  0  0
   -6.5427    5.9624   -0.3317 H   0  0  0  0  0  0
   -4.2913    5.4119    0.4784 H   0  0  0  0  0  0
    1.4400    4.3577    3.5113 H   0  0  0  0  0  0
    0.7636    2.7164    3.3918 H   0  0  0  0  0  0
    3.0886    2.6482    4.3967 H   0  0  0  0  0  0
    2.9807    1.7570    2.9011 H   0  0  0  0  0  0
    4.1428    4.5614    3.2638 H   0  0  0  0  0  0
    5.0361    3.1114    2.8853 H   0  0  0  0  0  0
    4.6505    4.5382    0.8570 H   0  0  0  0  0  0
    3.9661    2.9445    0.6736 H   0  0  0  0  0  0
    2.3081    4.5837   -0.1289 H   0  0  0  0  0  0
    2.3630    5.4748    1.4139 H   0  0  0  0  0  0
    1.5112    2.6686    1.0802 H   0  0  0  0  0  0
  1  6  1  0  0  0
  1 25  1  0  0  0
  1  2  2  0  0  0
  2  5  1  0  0  0
  3  4  1  0  0  0
  3  7  1  0  0  0
  3 15  1  0  0  0
  4  5  1  0  0  0
  4 12  2  0  0  0
  5 13  1  0  0  0
  5 36  1  0  0  0
  6 11  1  0  0  0
  6  7  2  0  0  0
  7  8  1  0  0  0
  8  9  2  0  0  0
  8 37  1  0  0  0
  9 10  1  0  0  0
  9 38  1  0  0  0
 10 11  2  0  0  0
 10 39  1  0  0  0
 11 40  1  0  0  0
 13 14  1  0  0  0
 13 41  1  0  0  0
 13 42  1  0  0  0
 14 31  1  0  0  0
 14 35  1  0  0  0
 14 68  1  0  0  0
 15 16  1  0  0  0
 15 43  1  0  0  0
 15 44  1  0  0  0
 16 17  1  0  0  0
 16 18  2  0  0  0
 17 19  1  0  0  0
 17 45  1  0  0  0
 19 20  1  0  0  0
 19 46  1  0  0  0
 19 47  1  0  0  0
 20 21  2  0  0  0
 20 48  1  0  0  0
 21 22  1  0  0  0
 21 49  1  0  0  0
 22 23  1  0  0  0
 22 24  2  0  0  0
 23 50  1  0  0  0
 23 51  1  0  0  0
 23 52  1  0  0  0
 25 26  2  0  0  0
 25 30  1  0  0  0
 26 27  1  0  0  0
 26 53  1  0  0  0
 27 28  2  0  0  0
 27 54  1  0  0  0
 28 29  1  0  0  0
 28 55  1  0  0  0
 29 30  2  0  0  0
 29 56  1  0  0  0
 30 57  1  0  0  0
 31 32  1  0  0  0
 31 58  1  0  0  0
 31 59  1  0  0  0
 32 33  1  0  0  0
 32 60  1  0  0  0
 32 61  1  0  0  0
 33 34  1  0  0  0
 33 62  1  0  0  0
 33 63  1  0  0  0
 34 35  1  0  0  0
 34 64  1  0  0  0
 34 65  1  0  0  0
 35 66  1  0  0  0
 35 67  1  0  0  0
M  CHG  1  14   1
M  END
> <chembl_id>
CHEMBL1952262

> <chembl_pref_name>
None

> <i_m_ct_stereo_status>
1

> <s_m_source_file>
sdf/inactives_sanitized.sdf

> <i_m_source_file_index>
97

> <i_lp_mmshare_version>
49012

> <i_f3d_flags>
0

> <s_epik_input>
W2NIXTFbY0hdW2NIXVtjSF1bY0hdYzFDMj1OW0NASF0oW0NIMl1OM1tDSDJdW0NIMl1bQ0gyXVtDSDJdW0NIMl0zKUMoPU8pTihjKGMyNClbY0hdW2NIXVtjSF1bY0hdNClbQ0gyXUMoPU8pW05IXVtDSDJdL1tDSF09W0NIXS9DKD1PKVtDSDNd

> <s_epik_cmdline>
J2VwaWtfcHl0aG9uJywgJy1waHQnLCAnMC41JywgJy1waCcsICc3LjUnLCAnLW50JywgJy1tYScsICcyMDAnLCAnLWltYWUnLCAnPGluZmlsZS5tYWU+JywgJy1vbWFlJywgJzxvdXRmaWxlLm1hZT4n

> <r_epik_Ionization_Penalty>
  0.0145

> <r_epik_Ionization_Penalty_Charging>
  0.0145

> <r_epik_Ionization_Penalty_Neutral>
  0.0000

> <r_epik_State_Penalty>
  0.0114

> <r_epik_Charging_Adjusted_Penalty>
0.0258860931191333

> <i_epik_Tot_Q>
1

> <i_epik_Tot_abs_Q>
1

> <s_epik_Chemistry_Notes>
This compound has an imine and may undergo hydrolysis.

> <s_lp_Force_Field>
OPLS3e

> <r_lp_Energy>
68.805225

> <b_lp_Chiralities_Consistent>
1

> <s_lp_Variant>
sdf/inactives_sanitized.sdf:97-1

$$$$
sdf/inactives_sanitized.sdf:98
                    3D
 Schrodinger Suite 2020-1.
 37 39  0  0  1  0            999 V2000
   -1.2300    1.9748    0.6167 C   0  0  0  0  0  0
   -2.3279    1.1491    0.8862 C   0  0  0  0  0  0
   -3.6184    1.6757    0.9235 C   0  0  0  0  0  0
   -3.8234    3.0339    0.6888 C   0  0  0  0  0  0
   -2.7379    3.8646    0.4152 C   0  0  0  0  0  0
   -1.4423    3.3438    0.3764 C   0  0  0  0  0  0
    0.1637    1.3601    0.5830 C   0  0  0  0  0  0
    0.6698    0.9578   -1.1227 S   0  0  0  0  0  0
    2.2933    0.2058   -0.8675 C   0  0  0  0  0  0
    2.8798   -0.1491   -1.9637 N   0  5  0  0  0  0
    4.1057   -0.7225   -1.9041 C   0  0  0  0  0  0
    4.6948   -0.9168   -0.6097 N   0  0  0  0  0  0
    4.0145   -0.5271    0.4244 C   0  0  0  0  0  0
    2.7502    0.0782    0.3443 N   0  0  0  0  0  0
    4.6923   -1.0661   -2.9278 O   0  0  0  0  0  0
    4.7739   -0.8062    2.0380 S   0  0  0  0  0  0
    3.4988   -0.1489    3.1617 C   0  0  0  0  0  0
    3.9304   -0.2777    4.6128 C   0  0  0  0  0  0
    4.5889    0.7824    5.2420 C   0  0  0  0  0  0
    4.9728    0.6683    6.5757 C   0  0  0  0  0  0
    4.6949   -0.5039    7.2759 C   0  0  0  0  0  0
    4.0357   -1.5630    6.6553 C   0  0  0  0  0  0
    3.6506   -1.4492    5.3220 C   0  0  0  0  0  0
   -0.1316    4.4186    0.0266 Cl  0  0  0  0  0  0
   -2.1832    0.0936    1.0661 H   0  0  0  0  0  0
   -4.4589    1.0308    1.1337 H   0  0  0  0  0  0
   -4.8227    3.4425    0.7174 H   0  0  0  0  0  0
   -2.9049    4.9162    0.2323 H   0  0  0  0  0  0
    0.8810    2.0452    1.0365 H   0  0  0  0  0  0
    0.1814    0.4609    1.2010 H   0  0  0  0  0  0
    3.3000    0.8988    2.9295 H   0  0  0  0  0  0
    2.5608   -0.6866    3.0134 H   0  0  0  0  0  0
    4.8046    1.6914    4.6994 H   0  0  0  0  0  0
    5.4832    1.4848    7.0648 H   0  0  0  0  0  0
    4.9929   -0.5925    8.3101 H   0  0  0  0  0  0
    3.8242   -2.4678    7.2060 H   0  0  0  0  0  0
    3.1392   -2.2706    4.8410 H   0  0  0  0  0  0
  1  6  1  0  0  0
  1  2  2  0  0  0
  1  7  1  0  0  0
  2  3  1  0  0  0
  2 25  1  0  0  0
  3  4  2  0  0  0
  3 26  1  0  0  0
  4  5  1  0  0  0
  4 27  1  0  0  0
  5  6  2  0  0  0
  5 28  1  0  0  0
  6 24  1  0  0  0
  7  8  1  0  0  0
  7 29  1  0  0  0
  7 30  1  0  0  0
  8  9  1  0  0  0
  9 14  2  0  0  0
  9 10  1  0  0  0
 10 11  1  0  0  0
 11 12  1  0  0  0
 11 15  2  0  0  0
 12 13  2  0  0  0
 13 14  1  0  0  0
 13 16  1  0  0  0
 16 17  1  0  0  0
 17 18  1  0  0  0
 17 31  1  0  0  0
 17 32  1  0  0  0
 18 19  2  0  0  0
 18 23  1  0  0  0
 19 20  1  0  0  0
 19 33  1  0  0  0
 20 21  2  0  0  0
 20 34  1  0  0  0
 21 22  1  0  0  0
 21 35  1  0  0  0
 22 23  2  0  0  0
 22 36  1  0  0  0
 23 37  1  0  0  0
M  CHG  1  10  -1
M  END
> <chembl_id>
CHEMBL1836469

> <chembl_pref_name>
None

> <s_m_source_file>
sdf/inactives_sanitized.sdf

> <i_m_source_file_index>
98

> <i_lp_mmshare_version>
49012

> <i_m_ct_stereo_status>
1

> <i_f3d_flags>
0

> <s_epik_input>
Q2xjMVtjSF1bY0hdW2NIXVtjSF1jMVtDSDJdU2MyW25IXWMoPU8pbmMobjIpU1tDSDJdYzNbY0hdW2NIXVtjSF1bY0hdW2NIXTM=

> <s_epik_cmdline>
J2VwaWtfcHl0aG9uJywgJy1waHQnLCAnMC41JywgJy1waCcsICc3LjUnLCAnLW50JywgJy1tYScsICcyMDAnLCAnLWltYWUnLCAnPGluZmlsZS5tYWU+JywgJy1vbWFlJywgJzxvdXRmaWxlLm1hZT4n

> <r_lp_tautomer_probability>
1

> <r_epik_Ionization_Penalty>
  0.3245

> <r_epik_Ionization_Penalty_Charging>
  0.0003

> <r_epik_Ionization_Penalty_Neutral>
  0.3241

> <r_epik_State_Penalty>
 -0.0000

> <r_epik_Charging_Adjusted_Penalty>
0.000330722952361958

> <i_epik_Tot_Q>
-1

> <i_epik_Tot_abs_Q>
1

> <s_lp_Force_Field>
OPLS3e

> <r_lp_Energy>
42.533717

> <b_lp_Chiralities_Consistent>
1

> <s_lp_Variant>
sdf/inactives_sanitized.sdf:98-1

$$$$
sdf/inactives_sanitized.sdf:99
                    3D
 Schrodinger Suite 2020-1.
 37 38  0  0  1  0            999 V2000
   -0.2222    1.9396    0.2650 C   0  0  0  0  0  0
   -0.3829    0.7391    1.2147 C   0  0  0  0  0  0
    0.8706   -0.5725    1.0354 S   0  0  0  0  0  0
    0.3222   -1.4188   -0.4616 C   0  0  0  0  0  0
   -0.7593   -1.1175   -1.1005 N   0  0  0  0  0  0
   -1.1054   -1.8438   -2.2782 C   0  0  0  0  0  0
   -0.2222   -2.8814   -2.6990 N   0  0  0  0  0  0
    0.8408   -3.1310   -2.0102 C   0  0  0  0  0  0
    1.1885   -2.4304   -0.8608 N   0  0  0  0  0  0
   -2.1287   -1.5862   -2.9075 O   0  0  0  0  0  0
    2.0191   -4.4317   -2.4273 S   0  0  0  0  0  0
    1.1217   -5.3785   -3.7062 C   0  0  0  0  0  0
   -0.0078   -6.2211   -3.1257 C   0  0  0  0  0  0
   -1.3404   -5.8851   -3.3828 C   0  0  0  0  0  0
   -2.3686   -6.6613   -2.8551 C   0  0  0  0  0  0
   -2.0623   -7.7767   -2.0784 C   0  0  0  0  0  0
   -0.7369   -8.1245   -1.8267 C   0  0  0  0  0  0
    0.2917   -7.3475   -2.3533 C   0  0  0  0  0  0
   -1.3020    3.0158    0.4709 C   0  0  0  0  0  0
   -1.1415    4.2123   -0.4765 C   0  0  0  0  0  0
    0.7649    2.3805    0.4104 H   0  0  0  0  0  0
   -0.2489    1.5968   -0.7698 H   0  0  0  0  0  0
   -1.3782    0.3029    1.1186 H   0  0  0  0  0  0
   -0.3298    1.0899    2.2459 H   0  0  0  0  0  0
    0.7669   -4.7171   -4.4983 H   0  0  0  0  0  0
    1.8366   -6.0496   -4.1836 H   0  0  0  0  0  0
   -1.5824   -5.0220   -3.9862 H   0  0  0  0  0  0
   -3.3987   -6.3997   -3.0474 H   0  0  0  0  0  0
   -2.8604   -8.3788   -1.6694 H   0  0  0  0  0  0
   -0.5082   -8.9926   -1.2262 H   0  0  0  0  0  0
    1.3192   -7.6176   -2.1572 H   0  0  0  0  0  0
   -2.2897    2.5759    0.3248 H   0  0  0  0  0  0
   -1.2750    3.3707    1.5022 H   0  0  0  0  0  0
   -1.9239    4.9520   -0.3043 H   0  0  0  0  0  0
   -1.2041    3.9017   -1.5201 H   0  0  0  0  0  0
   -0.1807    4.7071   -0.3308 H   0  0  0  0  0  0
    2.0265   -2.6464   -0.3418 H   0  0  0  0  0  0
  1  2  1  0  0  0
  1 19  1  0  0  0
  1 21  1  0  0  0
  1 22  1  0  0  0
  2  3  1  0  0  0
  2 23  1  0  0  0
  2 24  1  0  0  0
  3  4  1  0  0  0
  4  9  1  0  0  0
  4  5  2  0  0  0
  5  6  1  0  0  0
  6 10  2  0  0  0
  6  7  1  0  0  0
  7  8  2  0  0  0
  8 11  1  0  0  0
  8  9  1  0  0  0
  9 37  1  0  0  0
 11 12  1  0  0  0
 12 13  1  0  0  0
 12 25  1  0  0  0
 12 26  1  0  0  0
 13 14  2  0  0  0
 13 18  1  0  0  0
 14 15  1  0  0  0
 14 27  1  0  0  0
 15 16  2  0  0  0
 15 28  1  0  0  0
 16 17  1  0  0  0
 16 29  1  0  0  0
 17 18  2  0  0  0
 17 30  1  0  0  0
 18 31  1  0  0  0
 19 20  1  0  0  0
 19 32  1  0  0  0
 19 33  1  0  0  0
 20 34  1  0  0  0
 20 35  1  0  0  0
 20 36  1  0  0  0
M  END
> <chembl_id>
CHEMBL1836513

> <chembl_pref_name>
None

> <s_m_source_file>
sdf/inactives_sanitized.sdf

> <i_m_source_file_index>
99

> <i_lp_mmshare_version>
49012

> <i_m_ct_stereo_status>
1

> <i_f3d_flags>
0

> <s_epik_input>
W0NIM11bQ0gyXVtDSDJdW0NIMl1TYzFbbkhdYyg9TyluYyhuMSlTW0NIMl1jMltjSF1bY0hdW2NIXVtjSF1bY0hdMg==

> <s_epik_cmdline>
J2VwaWtfcHl0aG9uJywgJy1waHQnLCAnMC41JywgJy1waCcsICc3LjUnLCAnLW50JywgJy1tYScsICcyMDAnLCAnLWltYWUnLCAnPGluZmlsZS5tYWU+JywgJy1vbWFlJywgJzxvdXRmaWxlLm1hZT4n

> <r_lp_tautomer_probability>
0.000308339100536342

> <r_epik_Ionization_Penalty>
  0.5880

> <r_epik_Ionization_Penalty_Charging>
  0.5860

> <r_epik_Ionization_Penalty_Neutral>
  0.0020

> <r_epik_State_Penalty>
  0.4292

> <r_epik_Charging_Adjusted_Penalty>
1.01519153006645

> <i_epik_Tot_Q>
0

> <i_epik_Tot_abs_Q>
0

> <s_lp_Force_Field>
OPLS3e

> <r_lp_Energy>
31.704453

> <b_lp_Chiralities_Consistent>
1

> <s_lp_Variant>
sdf/inactives_sanitized.sdf:99-1

$$$$
sdf/inactives_sanitized.sdf:99
                    3D
 Schrodinger Suite 2020-1.
 37 38  0  0  1  0            999 V2000
   -0.6765    1.1071   -0.0601 C   0  0  0  0  0  0
    0.0498   -0.2457   -0.0193 C   0  0  0  0  0  0
    1.6824   -0.1816    0.7883 S   0  0  0  0  0  0
    2.2327   -1.8967    0.6575 C   0  0  0  0  0  0
    3.4465   -2.2751    1.1966 N   0  0  0  0  0  0
    3.9124   -3.5669    1.1614 C   0  0  0  0  0  0
    3.1192   -4.5006    0.4490 N   0  0  0  0  0  0
    2.0130   -4.0802   -0.0722 C   0  0  0  0  0  0
    1.4747   -2.7971    0.1040 N   0  0  0  0  0  0
    4.9768   -3.7609    1.7433 O   0  0  0  0  0  0
    1.1560   -5.2605   -1.1368 S   0  0  0  0  0  0
   -0.3034   -4.3041   -1.6623 C   0  0  0  0  0  0
   -1.1951   -5.1320   -2.5728 C   0  0  0  0  0  0
   -2.2172   -5.9130   -2.0260 C   0  0  0  0  0  0
   -3.0389   -6.6659   -2.8608 C   0  0  0  0  0  0
   -2.8381   -6.6329   -4.2392 C   0  0  0  0  0  0
   -1.8240   -5.8527   -4.7910 C   0  0  0  0  0  0
   -1.0021   -5.0992   -3.9568 C   0  0  0  0  0  0
   -2.0426    1.0342   -0.7645 C   0  0  0  0  0  0
   -2.7703    2.3849   -0.7996 C   0  0  0  0  0  0
   -0.8112    1.4731    0.9588 H   0  0  0  0  0  0
   -0.0451    1.8392   -0.5660 H   0  0  0  0  0  0
    0.1787   -0.6151   -1.0378 H   0  0  0  0  0  0
   -0.5727   -0.9716    0.5063 H   0  0  0  0  0  0
   -0.8734   -3.9825   -0.7892 H   0  0  0  0  0  0
    0.0110   -3.3985   -2.1837 H   0  0  0  0  0  0
   -2.3735   -5.9404   -0.9572 H   0  0  0  0  0  0
   -3.8279   -7.2729   -2.4416 H   0  0  0  0  0  0
   -3.4749   -7.2176   -4.8867 H   0  0  0  0  0  0
   -1.6762   -5.8328   -5.8607 H   0  0  0  0  0  0
   -0.2155   -4.4953   -4.3857 H   0  0  0  0  0  0
   -1.9093    0.6745   -1.7857 H   0  0  0  0  0  0
   -2.6758    0.3009   -0.2631 H   0  0  0  0  0  0
   -3.7280    2.2974   -1.3133 H   0  0  0  0  0  0
   -2.1819    3.1386   -1.3240 H   0  0  0  0  0  0
   -2.9678    2.7548    0.2069 H   0  0  0  0  0  0
    4.0148   -1.5938    1.6775 H   0  0  0  0  0  0
  1  2  1  0  0  0
  1 19  1  0  0  0
  1 21  1  0  0  0
  1 22  1  0  0  0
  2  3  1  0  0  0
  2 23  1  0  0  0
  2 24  1  0  0  0
  3  4  1  0  0  0
  4  9  2  0  0  0
  4  5  1  0  0  0
  5  6  1  0  0  0
  5 37  1  0  0  0
  6 10  2  0  0  0
  6  7  1  0  0  0
  7  8  2  0  0  0
  8 11  1  0  0  0
  8  9  1  0  0  0
 11 12  1  0  0  0
 12 13  1  0  0  0
 12 25  1  0  0  0
 12 26  1  0  0  0
 13 14  2  0  0  0
 13 18  1  0  0  0
 14 15  1  0  0  0
 14 27  1  0  0  0
 15 16  2  0  0  0
 15 28  1  0  0  0
 16 17  1  0  0  0
 16 29  1  0  0  0
 17 18  2  0  0  0
 17 30  1  0  0  0
 18 31  1  0  0  0
 19 20  1  0  0  0
 19 32  1  0  0  0
 19 33  1  0  0  0
 20 34  1  0  0  0
 20 35  1  0  0  0
 20 36  1  0  0  0
M  END
> <chembl_id>
CHEMBL1836513

> <chembl_pref_name>
None

> <s_m_source_file>
sdf/inactives_sanitized.sdf

> <i_m_source_file_index>
99

> <i_lp_mmshare_version>
49012

> <i_m_ct_stereo_status>
1

> <i_f3d_flags>
0

> <s_epik_input>
W0NIM11bQ0gyXVtDSDJdW0NIMl1TYzFbbkhdYyg9TyluYyhuMSlTW0NIMl1jMltjSF1bY0hdW2NIXVtjSF1bY0hdMg==

> <s_epik_cmdline>
J2VwaWtfcHl0aG9uJywgJy1waHQnLCAnMC41JywgJy1waCcsICc3LjUnLCAnLW50JywgJy1tYScsICcyMDAnLCAnLWltYWUnLCAnPGluZmlsZS5tYWU+JywgJy1vbWFlJywgJzxvdXRmaWxlLm1hZT4n

> <r_lp_tautomer_probability>
0.986814540016624

> <r_epik_Ionization_Penalty>
  0.4906

> <r_epik_Ionization_Penalty_Charging>
  0.0015

> <r_epik_Ionization_Penalty_Neutral>
  0.4891

> <r_epik_State_Penalty>
  0.5687

> <r_epik_Charging_Adjusted_Penalty>
0.570197322378337

> <i_epik_Tot_Q>
0

> <i_epik_Tot_abs_Q>
0

> <s_lp_Force_Field>
OPLS3e

> <r_lp_Energy>
34.495666

> <b_lp_Chiralities_Consistent>
1

> <s_lp_Variant>
sdf/inactives_sanitized.sdf:99-2

$$$$
sdf/inactives_sanitized.sdf:100
                    3D
 Schrodinger Suite 2020-1.
 67 69  0  0  1  0            999 V2000
   -2.6647   -0.6046   -1.2866 C   0  0  0  0  0  0
   -2.6295    0.6427   -0.9819 N   0  0  0  0  0  0
    0.2149   -0.2495   -0.4063 N   0  0  0  0  0  0
   -0.2905    1.0261   -0.3118 C   0  0  0  0  0  0
   -1.7846    1.0850    0.1201 C   0  0  1  0  0  0
   -1.8593   -1.6543   -0.5899 C   0  0  0  0  0  0
   -0.5062   -1.4667   -0.1630 C   0  0  0  0  0  0
    0.1434   -2.5623    0.4364 C   0  0  0  0  0  0
   -0.4976   -3.7732    0.6680 C   0  0  0  0  0  0
   -1.8208   -3.9333    0.2899 C   0  0  0  0  0  0
   -2.4895   -2.8857   -0.3303 C   0  0  0  0  0  0
    0.3447    2.0600   -0.5440 O   0  0  0  0  0  0
   -2.2773    2.4895    0.5546 C   0  0  0  0  0  0
   -1.4429    3.0273    1.7319 N   0  3  0  0  0  0
    1.6484   -0.3434   -0.7998 C   0  0  0  0  0  0
    2.6148   -0.1150    0.3864 C   0  0  0  0  0  0
    3.9213   -0.1608    0.0751 N   0  0  0  0  0  0
    2.2015    0.0803    1.5326 O   0  0  0  0  0  0
    5.0125   -0.0378    1.0391 C   0  0  0  0  0  0
    5.2489   -1.3080    1.8361 C   0  0  0  0  0  0
    5.1121   -1.4012    3.1734 C   0  0  0  0  0  0
    5.3401   -2.6385    3.9093 C   0  0  0  0  0  0
    5.1144   -2.6035    5.4174 C   0  0  0  0  0  0
    5.6980   -3.6917    3.3799 O   0  0  0  0  0  0
   -3.5308   -1.0335   -2.4101 C   0  0  0  0  0  0
   -3.0690   -1.9746   -3.3427 C   0  0  0  0  0  0
   -3.8820   -2.3738   -4.4001 C   0  0  0  0  0  0
   -5.1579   -1.8328   -4.5328 C   0  0  0  0  0  0
   -5.6281   -0.8934   -3.6192 C   0  0  0  0  0  0
   -4.8164   -0.4919   -2.5615 C   0  0  0  0  0  0
   -1.8494    4.4379    2.1889 C   0  0  0  0  0  0
   -0.9308    4.9221    3.3322 C   0  0  0  0  0  0
   -0.9650    4.0008    4.5688 C   0  0  0  0  0  0
   -1.2683    6.3728    3.7189 C   0  0  0  0  0  0
   -1.9213    0.4469    0.9989 H   0  0  0  0  0  0
    1.1711   -2.4804    0.7558 H   0  0  0  0  0  0
    0.0327   -4.5851    1.1441 H   0  0  0  0  0  0
   -2.3275   -4.8697    0.4719 H   0  0  0  0  0  0
   -3.5201   -3.0499   -0.6138 H   0  0  0  0  0  0
   -2.1791    3.2346   -0.2378 H   0  0  0  0  0  0
   -3.3058    2.4746    0.9197 H   0  0  0  0  0  0
   -1.5298    2.3916    2.5123 H   0  0  0  0  0  0
    1.8495   -1.3253   -1.2301 H   0  0  0  0  0  0
    1.8796    0.3661   -1.5966 H   0  0  0  0  0  0
    4.1857   -0.3651   -0.8778 H   0  0  0  0  0  0
    5.9210    0.1546    0.4678 H   0  0  0  0  0  0
    4.8705    0.8330    1.6833 H   0  0  0  0  0  0
    5.5404   -2.1713    1.2527 H   0  0  0  0  0  0
    4.8176   -0.5391    3.7549 H   0  0  0  0  0  0
    5.7773   -1.8737    5.8825 H   0  0  0  0  0  0
    5.3101   -3.5794    5.8632 H   0  0  0  0  0  0
    4.0843   -2.3248    5.6398 H   0  0  0  0  0  0
   -2.0784   -2.3996   -3.2595 H   0  0  0  0  0  0
   -3.5237   -3.0991   -5.1158 H   0  0  0  0  0  0
   -5.7879   -2.1430   -5.3536 H   0  0  0  0  0  0
   -6.6187   -0.4776   -3.7305 H   0  0  0  0  0  0
   -5.1977    0.2371   -1.8600 H   0  0  0  0  0  0
   -1.7592    5.0594    1.2962 H   0  0  0  0  0  0
   -2.8959    4.3600    2.4888 H   0  0  0  0  0  0
    0.0936    4.9275    2.9551 H   0  0  0  0  0  0
   -1.9701    3.9313    4.9870 H   0  0  0  0  0  0
   -0.3062    4.3725    5.3547 H   0  0  0  0  0  0
   -0.6340    2.9898    4.3299 H   0  0  0  0  0  0
   -2.2842    6.4573    4.1072 H   0  0  0  0  0  0
   -1.1857    7.0412    2.8607 H   0  0  0  0  0  0
   -0.5888    6.7473    4.4858 H   0  0  0  0  0  0
   -0.4722    3.0465    1.4509 H   0  0  0  0  0  0
  1  6  1  0  0  0
  1 25  1  0  0  0
  1  2  2  0  0  0
  2  5  1  0  0  0
  3  4  1  0  0  0
  3  7  1  0  0  0
  3 15  1  0  0  0
  4  5  1  0  0  0
  4 12  2  0  0  0
  5 13  1  0  0  0
  5 35  1  0  0  0
  6 11  2  0  0  0
  6  7  1  0  0  0
  7  8  2  0  0  0
  8  9  1  0  0  0
  8 36  1  0  0  0
  9 10  2  0  0  0
  9 37  1  0  0  0
 10 11  1  0  0  0
 10 38  1  0  0  0
 11 39  1  0  0  0
 13 14  1  0  0  0
 13 40  1  0  0  0
 13 41  1  0  0  0
 14 31  1  0  0  0
 14 42  1  0  0  0
 14 67  1  0  0  0
 15 16  1  0  0  0
 15 43  1  0  0  0
 15 44  1  0  0  0
 16 17  1  0  0  0
 16 18  2  0  0  0
 17 19  1  0  0  0
 17 45  1  0  0  0
 19 20  1  0  0  0
 19 46  1  0  0  0
 19 47  1  0  0  0
 20 21  2  0  0  0
 20 48  1  0  0  0
 21 22  1  0  0  0
 21 49  1  0  0  0
 22 23  1  0  0  0
 22 24  2  0  0  0
 23 50  1  0  0  0
 23 51  1  0  0  0
 23 52  1  0  0  0
 25 26  2  0  0  0
 25 30  1  0  0  0
 26 27  1  0  0  0
 26 53  1  0  0  0
 27 28  2  0  0  0
 27 54  1  0  0  0
 28 29  1  0  0  0
 28 55  1  0  0  0
 29 30  2  0  0  0
 29 56  1  0  0  0
 30 57  1  0  0  0
 31 32  1  0  0  0
 31 58  1  0  0  0
 31 59  1  0  0  0
 32 33  1  0  0  0
 32 34  1  0  0  0
 32 60  1  0  0  0
 33 61  1  0  0  0
 33 62  1  0  0  0
 33 63  1  0  0  0
 34 64  1  0  0  0
 34 65  1  0  0  0
 34 66  1  0  0  0
M  CHG  1  14   1
M  END
> <chembl_id>
CHEMBL1952263

> <chembl_pref_name>
None

> <i_m_ct_stereo_status>
1

> <s_m_source_file>
sdf/inactives_sanitized.sdf

> <i_m_source_file_index>
100

> <i_lp_mmshare_version>
49012

> <i_f3d_flags>
0

> <s_epik_input>
W2NIXTFbY0hdW2NIXVtjSF1bY0hdYzFDMj1OW0NASF0oW0NIMl1bTkhdW0NIMl1bQ0hdKFtDSDNdKVtDSDNdKUMoPU8pTihjKGMyMylbY0hdW2NIXVtjSF1bY0hdMylbQ0gyXUMoPU8pW05IXVtDSDJdL1tDSF09W0NIXS9DKD1PKVtDSDNd

> <s_epik_cmdline>
J2VwaWtfcHl0aG9uJywgJy1waHQnLCAnMC41JywgJy1waCcsICc3LjUnLCAnLW50JywgJy1tYScsICcyMDAnLCAnLWltYWUnLCAnPGluZmlsZS5tYWU+JywgJy1vbWFlJywgJzxvdXRmaWxlLm1hZT4n

> <r_lp_tautomer_probability>
1

> <r_epik_Ionization_Penalty>
  0.0019

> <r_epik_Ionization_Penalty_Charging>
  0.0019

> <r_epik_Ionization_Penalty_Neutral>
  0.0000

> <r_epik_State_Penalty>
 -0.0000

> <r_epik_Charging_Adjusted_Penalty>
0.00191963850494677

> <i_epik_Tot_Q>
1

> <i_epik_Tot_abs_Q>
1

> <s_epik_Chemistry_Notes>
This compound has an imine and may undergo hydrolysis.

> <s_lp_Force_Field>
OPLS3e

> <r_lp_Energy>
59.341009

> <b_lp_Chiralities_Consistent>
1

> <s_lp_Variant>
sdf/inactives_sanitized.sdf:100-1

$$$$
sdf/inactives_sanitized.sdf:101
                    3D
 Schrodinger Suite 2020-1.
 53 56  0  0  1  0            999 V2000
   -0.5760    2.1804    0.3605 O   0  0  0  0  0  0
   -0.9249    1.0108    0.1854 C   0  0  0  0  0  0
   -0.0515   -0.0027    0.0275 N   0  0  0  0  0  0
    1.4113    0.0997    0.0558 C   0  0  1  0  0  0
    2.0284   -0.5508    1.3396 C   0  0  0  0  0  0
    1.4438    0.0078    2.6608 C   0  0  0  0  0  0
    1.8990   -0.8734    3.8434 C   0  0  0  0  0  0
    3.4453   -0.9393    3.9261 C   0  0  0  0  0  0
    4.1190   -1.2621    2.5680 C   0  0  0  0  0  0
    3.5624   -0.3586    1.4480 C   0  0  0  0  0  0
    1.9335   -0.5210   -1.2685 C   0  0  0  0  0  0
    2.1708   -1.7315   -1.2827 O   0  0  0  0  0  0
    2.0997    0.2693   -2.3634 N   0  0  0  0  0  0
    1.8495    1.7145   -2.3787 C   0  0  0  0  0  0
    1.8830    2.0696   -3.8611 C   0  0  0  0  0  0
    2.8484    1.0751   -4.4858 C   0  0  1  0  0  0
    4.1925    1.5304   -4.4359 O   0  0  0  0  0  0
    5.0163    0.3815   -4.4031 C   0  0  0  0  0  0
    4.2738   -0.5792   -3.4961 C   0  0  0  0  0  0
    4.7655   -1.4734   -2.8102 O   0  0  0  0  0  0
    2.8009   -0.1724   -3.5892 C   0  0  1  0  0  0
   -2.3908    0.6441    0.1163 C   0  0  0  0  0  0
   -3.3377    1.6288   -0.2004 C   0  0  0  0  0  0
   -4.6926    1.3137   -0.2600 C   0  0  0  0  0  0
   -5.1107    0.0122    0.0015 C   0  0  0  0  0  0
   -4.1858   -0.9773    0.3221 C   0  0  0  0  0  0
   -2.8305   -0.6639    0.3800 C   0  0  0  0  0  0
   -0.4126   -0.9315   -0.1331 H   0  0  0  0  0  0
    1.7074    1.1484    0.0957 H   0  0  0  0  0  0
    1.7916   -1.6168    1.2923 H   0  0  0  0  0  0
    1.6920    1.0625    2.7917 H   0  0  0  0  0  0
    0.3546   -0.0093    2.6306 H   0  0  0  0  0  0
    1.4922   -0.4856    4.7780 H   0  0  0  0  0  0
    1.4957   -1.8808    3.7284 H   0  0  0  0  0  0
    3.8184    0.0226    4.2814 H   0  0  0  0  0  0
    3.7467   -1.6725    4.6752 H   0  0  0  0  0  0
    5.1992   -1.1359    2.6487 H   0  0  0  0  0  0
    3.9513   -2.3101    2.3143 H   0  0  0  0  0  0
    3.8249    0.6929    1.5774 H   0  0  0  0  0  0
    4.0466   -0.6430    0.5135 H   0  0  0  0  0  0
    0.8930    1.9777   -1.9269 H   0  0  0  0  0  0
    2.6470    2.2229   -1.8347 H   0  0  0  0  0  0
    0.8920    1.9609   -4.3048 H   0  0  0  0  0  0
    2.1921    3.1065   -3.9966 H   0  0  0  0  0  0
    2.5502    0.8442   -5.5108 H   0  0  0  0  0  0
    5.1200   -0.0437   -5.4021 H   0  0  0  0  0  0
    6.0077    0.6217   -4.0187 H   0  0  0  0  0  0
    2.2239   -0.9651   -4.0672 H   0  0  0  0  0  0
   -3.0331    2.6452   -0.4064 H   0  0  0  0  0  0
   -5.4160    2.0768   -0.5071 H   0  0  0  0  0  0
   -6.1620   -0.2316   -0.0429 H   0  0  0  0  0  0
   -4.5185   -1.9841    0.5277 H   0  0  0  0  0  0
   -2.1336   -1.4480    0.6393 H   0  0  0  0  0  0
  1  2  2  0  0  0
  2  3  1  0  0  0
  2 22  1  0  0  0
  3  4  1  0  0  0
  3 28  1  0  0  0
  4  5  1  0  0  0
  4 11  1  0  0  0
  4 29  1  0  0  0
  5  6  1  0  0  0
  5 10  1  0  0  0
  5 30  1  0  0  0
  6  7  1  0  0  0
  6 31  1  0  0  0
  6 32  1  0  0  0
  7  8  1  0  0  0
  7 33  1  0  0  0
  7 34  1  0  0  0
  8  9  1  0  0  0
  8 35  1  0  0  0
  8 36  1  0  0  0
  9 10  1  0  0  0
  9 37  1  0  0  0
  9 38  1  0  0  0
 10 39  1  0  0  0
 10 40  1  0  0  0
 11 12  2  0  0  0
 11 13  1  0  0  0
 13 14  1  0  0  0
 13 21  1  0  0  0
 14 15  1  0  0  0
 14 41  1  0  0  0
 14 42  1  0  0  0
 15 16  1  0  0  0
 15 43  1  0  0  0
 15 44  1  0  0  0
 16 17  1  0  0  0
 16 21  1  0  0  0
 16 45  1  0  0  0
 17 18  1  0  0  0
 18 19  1  0  0  0
 18 46  1  0  0  0
 18 47  1  0  0  0
 19 20  2  0  0  0
 19 21  1  0  0  0
 21 48  1  0  0  0
 22 23  2  0  0  0
 22 27  1  0  0  0
 23 24  1  0  0  0
 23 49  1  0  0  0
 24 25  2  0  0  0
 24 50  1  0  0  0
 25 26  1  0  0  0
 25 51  1  0  0  0
 26 27  2  0  0  0
 26 52  1  0  0  0
 27 53  1  0  0  0
M  END
> <chembl_id>
CHEMBL3648396

> <chembl_pref_name>
None

> <i_m_ct_stereo_status>
1

> <s_m_source_file>
sdf/inactives_sanitized.sdf

> <i_m_source_file_index>
101

> <i_lp_mmshare_version>
49012

> <i_f3d_flags>
0

> <s_epik_input>
W2NIXTFbY0hdW2NIXVtjSF1bY0hdYzFDKD1PKVtOSF1bQ0BIXShDKD1PKU4oW0NIMl1bQ0gyXTIpW0NAQEhdKFtDQEBIXTIzKUMoPU8pW0NIMl1PMylbQ0hdNFtDSDJdW0NIMl1bQ0gyXVtDSDJdW0NIMl00

> <s_epik_cmdline>
J2VwaWtfcHl0aG9uJywgJy1waHQnLCAnMC41JywgJy1waCcsICc3LjUnLCAnLW50JywgJy1tYScsICcyMDAnLCAnLWltYWUnLCAnPGluZmlsZS5tYWU+JywgJy1vbWFlJywgJzxvdXRmaWxlLm1hZT4n

> <r_lp_tautomer_probability>
1

> <r_epik_Ionization_Penalty>
  0.0000

> <r_epik_Ionization_Penalty_Charging>
  0.0000

> <r_epik_Ionization_Penalty_Neutral>
  0.0000

> <r_epik_State_Penalty>
 -0.0000

> <r_epik_Charging_Adjusted_Penalty>
0

> <i_epik_Tot_Q>
0

> <i_epik_Tot_abs_Q>
0

> <s_lp_Force_Field>
OPLS3e

> <r_lp_Energy>
24.799051

> <b_lp_Chiralities_Consistent>
1

> <s_lp_Variant>
sdf/inactives_sanitized.sdf:101-1

$$$$
sdf/inactives_sanitized.sdf:102
                    3D
 Schrodinger Suite 2020-1.
 19 20  0  0  1  0            999 V2000
   -0.6997    1.1781    0.0000 C   0  0  0  0  0  0
   -2.0830    1.1755   -0.0000 C   0  0  0  0  0  0
   -2.7949   -0.0140   -0.0000 C   0  0  0  0  0  0
    0.0616    0.0008   -0.0000 C   0  0  0  0  0  0
   -0.6505   -1.2638   -0.0000 C   0  0  0  0  0  0
   -2.0926   -1.2585   -0.0000 C   0  0  0  0  0  0
   -2.8202   -2.4205   -0.0000 N   0  0  0  0  0  0
   -2.1769   -3.6060   -0.0000 C   0  0  0  0  0  0
   -0.7979   -3.7175   -0.0000 C   0  0  0  0  0  0
   -0.0329   -2.5575   -0.0000 C   0  0  0  0  0  0
   -4.0679    0.0584   -0.0000 O   0  5  0  0  0  0
    1.5513    0.1443    0.0000 N   0  3  0  0  0  0
    2.2782   -0.8392    0.0000 O   0  0  0  0  0  0
    2.0295    1.2763   -0.0000 O   0  5  0  0  0  0
   -0.2161    2.1438    0.0000 H   0  0  0  0  0  0
   -2.6034    2.1234    0.0000 H   0  0  0  0  0  0
   -2.7993   -4.4885   -0.0000 H   0  0  0  0  0  0
   -0.3254   -4.6887   -0.0000 H   0  0  0  0  0  0
    1.0319   -2.6954   -0.0000 H   0  0  0  0  0  0
  1  2  2  0  0  0
  1  4  1  0  0  0
  1 15  1  0  0  0
  2  3  1  0  0  0
  2 16  1  0  0  0
  3  6  2  0  0  0
  3 11  1  0  0  0
  4  5  2  0  0  0
  4 12  1  0  0  0
  5  6  1  0  0  0
  5 10  1  0  0  0
  6  7  1  0  0  0
  7  8  2  0  0  0
  8  9  1  0  0  0
  8 17  1  0  0  0
  9 10  2  0  0  0
  9 18  1  0  0  0
 10 19  1  0  0  0
 12 13  2  0  0  0
 12 14  1  0  0  0
M  CHG  3  11  -1  12   1  14  -1
M  END
> <chembl_id>
CHEMBL1454910

> <chembl_pref_name>
NITROXOLINE

> <s_m_source_file>
sdf/inactives_sanitized.sdf

> <i_m_source_file_index>
102

> <i_lp_mmshare_version>
49012

> <i_m_ct_stereo_status>
1

> <i_f3d_flags>
0

> <s_epik_input>
Tz1bTitdKFtPLV0pYzFbY0hdW2NIXWMoW09IXSljKGMxMiluW2NIXVtjSF1bY0hdMg==

> <s_epik_cmdline>
J2VwaWtfcHl0aG9uJywgJy1waHQnLCAnMC41JywgJy1waCcsICc3LjUnLCAnLW50JywgJy1tYScsICcyMDAnLCAnLWltYWUnLCAnPGluZmlsZS5tYWU+JywgJy1vbWFlJywgJzxvdXRmaWxlLm1hZT4n

> <r_lp_tautomer_probability>
1

> <r_epik_Ionization_Penalty>
  0.0008

> <r_epik_Ionization_Penalty_Charging>
  0.0008

> <r_epik_Ionization_Penalty_Neutral>
  0.0000

> <r_epik_State_Penalty>
 -0.0000

> <r_epik_Charging_Adjusted_Penalty>
0.000796129509983576

> <i_epik_Tot_Q>
-1

> <i_epik_Tot_abs_Q>
3

> <s_lp_Force_Field>
OPLS3e

> <r_lp_Energy>
29.291547

> <b_lp_Chiralities_Consistent>
1

> <s_lp_Variant>
sdf/inactives_sanitized.sdf:102-1

$$$$
sdf/inactives_sanitized.sdf:103
                    3D
 Schrodinger Suite 2020-1.
 58 59  0  0  1  0            999 V2000
    0.3992   -0.2555    0.0436 N   0  0  0  0  0  0
   -0.1948   -1.4033    0.4803 C   0  0  0  0  0  0
    0.4500   -2.5508    0.1708 N   0  0  0  0  0  0
    0.0745   -3.9200    0.5559 C   0  0  2  0  0  0
    0.4693   -4.1048    2.0144 C   0  0  0  0  0  0
    1.0350   -5.1061    2.4521 O   0  0  0  0  0  0
    0.7242   -4.9407   -0.4180 C   0  0  0  0  0  0
    0.0158   -6.2814   -0.5293 C   0  0  0  0  0  0
    0.4405   -7.3861    0.2394 C   0  0  0  0  0  0
   -0.2687   -8.5792    0.1925 C   0  0  0  0  0  0
   -1.4123   -8.6838   -0.5896 C   0  0  0  0  0  0
   -1.8630   -7.5938   -1.3234 C   0  0  0  0  0  0
   -1.1679   -6.3920   -1.2899 C   0  0  0  0  0  0
   -1.2769   -1.4157    1.0727 O   0  0  0  0  0  0
   -0.2930    1.0439    0.1733 C   0  0  0  0  0  0
    1.7371   -0.1896   -0.5915 C   0  0  0  0  0  0
    2.9245   -0.5463    0.3289 C   0  0  0  0  0  0
    2.9404    0.3292    1.4442 O   0  0  0  0  0  0
    3.9531    0.0488    2.4002 C   0  0  0  0  0  0
    3.8326    1.0158    3.5702 C   0  0  0  0  0  0
    3.9839    0.5464    4.8781 C   0  0  0  0  0  0
    3.8732    1.4270    5.9513 C   0  0  0  0  0  0
    3.6146    2.7754    5.7144 C   0  0  0  0  0  0
    3.4687    3.2524    4.4137 C   0  0  0  0  0  0
    3.5810    2.3727    3.3404 C   0  0  0  0  0  0
    0.1855    1.9437    1.3393 C   0  0  0  0  0  0
    0.0586    1.2706    2.7210 C   0  0  0  0  0  0
   -0.5647    3.2864    1.3215 C   0  0  0  0  0  0
    1.3277   -2.4791   -0.3229 H   0  0  0  0  0  0
   -1.0104   -4.0099    0.4685 H   0  0  0  0  0  0
    0.1992   -3.2800    2.6749 H   0  0  0  0  0  0
    0.7348   -4.5150   -1.4232 H   0  0  0  0  0  0
    1.7809   -5.0900   -0.1881 H   0  0  0  0  0  0
    1.3197   -7.3109    0.8622 H   0  0  0  0  0  0
    0.0663   -9.4268    0.7722 H   0  0  0  0  0  0
   -1.9599   -9.6143   -0.6184 H   0  0  0  0  0  0
   -2.7618   -7.6786   -1.9163 H   0  0  0  0  0  0
   -1.5354   -5.5441   -1.8492 H   0  0  0  0  0  0
   -0.1770    1.5856   -0.7666 H   0  0  0  0  0  0
   -1.3686    0.8917    0.2783 H   0  0  0  0  0  0
    1.7625   -0.7719   -1.5132 H   0  0  0  0  0  0
    1.8796    0.8511   -0.8858 H   0  0  0  0  0  0
    2.8527   -1.5815    0.6650 H   0  0  0  0  0  0
    3.8574   -0.4632   -0.2306 H   0  0  0  0  0  0
    3.8503   -0.9790    2.7553 H   0  0  0  0  0  0
    4.9437    0.1550    1.9548 H   0  0  0  0  0  0
    4.1841   -0.4984    5.0665 H   0  0  0  0  0  0
    3.9870    1.0656    6.9628 H   0  0  0  0  0  0
    3.5279    3.4576    6.5472 H   0  0  0  0  0  0
    3.2699    4.2994    4.2383 H   0  0  0  0  0  0
    3.4682    2.7461    2.3329 H   0  0  0  0  0  0
    1.2359    2.1814    1.1715 H   0  0  0  0  0  0
   -0.9763    1.0060    2.9405 H   0  0  0  0  0  0
    0.4088    1.9307    3.5155 H   0  0  0  0  0  0
    0.6513    0.3581    2.7828 H   0  0  0  0  0  0
   -1.6343    3.1489    1.4856 H   0  0  0  0  0  0
   -0.4392    3.7975    0.3662 H   0  0  0  0  0  0
   -0.1940    3.9567    2.0980 H   0  0  0  0  0  0
  1 15  1  0  0  0
  1 16  1  0  0  0
  1  2  1  0  0  0
  2 14  2  0  0  0
  2  3  1  0  0  0
  3  4  1  0  0  0
  3 29  1  0  0  0
  4  7  1  0  0  0
  4  5  1  0  0  0
  4 30  1  0  0  0
  5  6  2  0  0  0
  5 31  1  0  0  0
  7  8  1  0  0  0
  7 32  1  0  0  0
  7 33  1  0  0  0
  8  9  2  0  0  0
  8 13  1  0  0  0
  9 10  1  0  0  0
  9 34  1  0  0  0
 10 11  2  0  0  0
 10 35  1  0  0  0
 11 12  1  0  0  0
 11 36  1  0  0  0
 12 13  2  0  0  0
 12 37  1  0  0  0
 13 38  1  0  0  0
 15 26  1  0  0  0
 15 39  1  0  0  0
 15 40  1  0  0  0
 16 17  1  0  0  0
 16 41  1  0  0  0
 16 42  1  0  0  0
 17 18  1  0  0  0
 17 43  1  0  0  0
 17 44  1  0  0  0
 18 19  1  0  0  0
 19 20  1  0  0  0
 19 45  1  0  0  0
 19 46  1  0  0  0
 20 21  2  0  0  0
 20 25  1  0  0  0
 21 22  1  0  0  0
 21 47  1  0  0  0
 22 23  2  0  0  0
 22 48  1  0  0  0
 23 24  1  0  0  0
 23 49  1  0  0  0
 24 25  2  0  0  0
 24 50  1  0  0  0
 25 51  1  0  0  0
 26 27  1  0  0  0
 26 28  1  0  0  0
 26 52  1  0  0  0
 27 53  1  0  0  0
 27 54  1  0  0  0
 27 55  1  0  0  0
 28 56  1  0  0  0
 28 57  1  0  0  0
 28 58  1  0  0  0
M  END
> <chembl_id>
CHEMBL205436

> <chembl_pref_name>
None

> <i_m_ct_stereo_status>
1

> <s_m_source_file>
sdf/inactives_sanitized.sdf

> <i_m_source_file_index>
103

> <i_lp_mmshare_version>
49012

> <i_f3d_flags>
0

> <s_epik_input>
W2NIXTFbY0hdW2NIXVtjSF1bY0hdYzFbQ0gyXU9bQ0gyXVtDSDJdTihbQ0gyXVtDSF0oW0NIM10pW0NIM10pQyg9TylbTkhdW0NASF0oW0NIXT1PKVtDSDJdYzJbY0hdW2NIXVtjSF1bY0hdW2NIXTI=

> <s_epik_cmdline>
J2VwaWtfcHl0aG9uJywgJy1waHQnLCAnMC41JywgJy1waCcsICc3LjUnLCAnLW50JywgJy1tYScsICcyMDAnLCAnLWltYWUnLCAnPGluZmlsZS5tYWU+JywgJy1vbWFlJywgJzxvdXRmaWxlLm1hZT4n

> <r_lp_tautomer_probability>
1

> <r_epik_Ionization_Penalty>
  0.0000

> <r_epik_Ionization_Penalty_Charging>
  0.0000

> <r_epik_Ionization_Penalty_Neutral>
  0.0000

> <r_epik_State_Penalty>
 -0.0000

> <r_epik_Charging_Adjusted_Penalty>
0

> <i_epik_Tot_Q>
0

> <i_epik_Tot_abs_Q>
0

> <s_lp_Force_Field>
OPLS3e

> <r_lp_Energy>
40.650126

> <b_lp_Chiralities_Consistent>
1

> <s_lp_Variant>
sdf/inactives_sanitized.sdf:103-1

$$$$
sdf/inactives_sanitized.sdf:104
                    3D
 Schrodinger Suite 2020-1.
 49 51  0  0  1  0            999 V2000
   -4.3390    1.0347    1.3276 C   0  0  0  0  0  0
   -2.8548    0.7362    1.4797 C   0  0  0  0  0  0
   -2.3242    0.4761    0.0608 C   0  0  1  0  0  0
   -3.2409    1.3088   -0.7699 N   0  0  2  0  0  0
   -4.5944    1.2518   -0.1648 C   0  0  0  0  0  0
   -0.8450    0.8901   -0.0729 C   0  0  0  0  0  0
    0.0496   -0.1119   -0.1337 N   0  0  0  0  0  0
   -0.5211    2.0779   -0.0121 O   0  0  0  0  0  0
   -3.1185    1.2926   -2.5411 S   0  0  0  0  0  0
   -4.1365    2.6634   -3.0831 C   0  0  0  0  0  0
   -1.7362    1.6119   -2.9162 O   0  0  0  0  0  0
   -3.7463    0.0519   -3.0112 O   0  0  0  0  0  0
    1.5132    0.0424   -0.1024 C   0  0  2  0  0  0
    2.0923   -0.6607   -1.3191 C   0  0  0  0  0  0
    2.0900   -0.5545    1.2059 C   0  0  0  0  0  0
    1.5957    0.1069    2.4836 C   0  0  0  0  0  0
    0.4425   -0.3769    3.1390 C   0  0  0  0  0  0
   -0.0648    0.2961    4.2423 C   0  0  0  0  0  0
    0.5435    1.4617    4.6911 C   0  0  0  0  0  0
    1.6562    1.9712    4.0332 C   0  0  0  0  0  0
    2.1773    1.3137    2.9264 C   0  0  0  0  0  0
    1.4339   -1.2278   -2.1937 O   0  0  0  0  0  0
   -5.4531    2.4426   -3.4960 C   0  0  0  0  0  0
   -6.2410    3.5183   -3.8970 C   0  0  0  0  0  0
   -5.7121    4.8079   -3.8780 C   0  0  0  0  0  0
   -3.6124    3.9577   -3.0568 C   0  0  0  0  0  0
   -4.4019    5.0317   -3.4584 C   0  0  0  0  0  0
   -6.8967    6.4225   -4.4813 I   0  0  0  0  0  0
   -4.6037    1.9276    1.8957 H   0  0  0  0  0  0
   -4.9534    0.2181    1.7096 H   0  0  0  0  0  0
   -2.7034   -0.1389    2.1139 H   0  0  0  0  0  0
   -2.3460    1.5658    1.9768 H   0  0  0  0  0  0
   -2.4310   -0.5811   -0.1931 H   0  0  0  0  0  0
   -5.2194    2.0959   -0.4571 H   0  0  0  0  0  0
   -5.1263    0.3988   -0.5895 H   0  0  0  0  0  0
   -0.2850   -1.0641   -0.1049 H   0  0  0  0  0  0
    1.7925    1.0968   -0.1568 H   0  0  0  0  0  0
    3.1808   -0.6272   -1.3734 H   0  0  0  0  0  0
    1.8568   -1.6193    1.2731 H   0  0  0  0  0  0
    3.1795   -0.4839    1.1981 H   0  0  0  0  0  0
   -0.0514   -1.2693    2.7831 H   0  0  0  0  0  0
   -0.9408   -0.0828    4.7477 H   0  0  0  0  0  0
    0.1416    1.9811    5.5486 H   0  0  0  0  0  0
    2.1124    2.8875    4.3781 H   0  0  0  0  0  0
    3.0283    1.7293    2.4066 H   0  0  0  0  0  0
   -5.8690    1.4459   -3.5067 H   0  0  0  0  0  0
   -7.2581    3.3521   -4.2201 H   0  0  0  0  0  0
   -2.5992    4.1327   -2.7250 H   0  0  0  0  0  0
   -3.9989    6.0336   -3.4422 H   0  0  0  0  0  0
  1  5  1  0  0  0
  1  2  1  0  0  0
  1 29  1  0  0  0
  1 30  1  0  0  0
  2  3  1  0  0  0
  2 31  1  0  0  0
  2 32  1  0  0  0
  3  4  1  0  0  0
  3  6  1  0  0  0
  3 33  1  0  0  0
  4  9  1  0  0  0
  4  5  1  0  0  0
  5 34  1  0  0  0
  5 35  1  0  0  0
  6  7  1  0  0  0
  6  8  2  0  0  0
  7 13  1  0  0  0
  7 36  1  0  0  0
  9 10  1  0  0  0
  9 11  2  0  0  0
  9 12  2  0  0  0
 10 23  2  0  0  0
 10 26  1  0  0  0
 13 14  1  0  0  0
 13 15  1  0  0  0
 13 37  1  0  0  0
 14 22  2  0  0  0
 14 38  1  0  0  0
 15 16  1  0  0  0
 15 39  1  0  0  0
 15 40  1  0  0  0
 16 17  2  0  0  0
 16 21  1  0  0  0
 17 18  1  0  0  0
 17 41  1  0  0  0
 18 19  2  0  0  0
 18 42  1  0  0  0
 19 20  1  0  0  0
 19 43  1  0  0  0
 20 21  2  0  0  0
 20 44  1  0  0  0
 21 45  1  0  0  0
 23 24  1  0  0  0
 23 46  1  0  0  0
 24 25  2  0  0  0
 24 47  1  0  0  0
 25 27  1  0  0  0
 25 28  1  0  0  0
 26 27  2  0  0  0
 26 48  1  0  0  0
 27 49  1  0  0  0
M  END
> <chembl_id>
CHEMBL380103

> <chembl_pref_name>
None

> <i_m_ct_stereo_status>
1

> <s_m_source_file>
sdf/inactives_sanitized.sdf

> <i_m_source_file_index>
104

> <i_lp_mmshare_version>
49012

> <i_f3d_flags>
0

> <s_epik_input>
W2NIXTFbY0hdYyhJKVtjSF1bY0hdYzFTKD1PKSg9TylOMltDSDJdW0NIMl1bQ0gyXVtDQEBIXTJDKD1PKVtOSF1bQ0BIXShbQ0hdPU8pW0NIMl1jM1tjSF1bY0hdW2NIXVtjSF1bY0hdMw==

> <s_epik_cmdline>
J2VwaWtfcHl0aG9uJywgJy1waHQnLCAnMC41JywgJy1waCcsICc3LjUnLCAnLW50JywgJy1tYScsICcyMDAnLCAnLWltYWUnLCAnPGluZmlsZS5tYWU+JywgJy1vbWFlJywgJzxvdXRmaWxlLm1hZT4n

> <r_lp_tautomer_probability>
1

> <r_epik_Ionization_Penalty>
  0.0030

> <r_epik_Ionization_Penalty_Charging>
  0.0000

> <r_epik_Ionization_Penalty_Neutral>
  0.0030

> <r_epik_State_Penalty>
 -0.0000

> <r_epik_Charging_Adjusted_Penalty>
0

> <i_epik_Tot_Q>
0

> <i_epik_Tot_abs_Q>
0

> <s_lp_Force_Field>
OPLS3e

> <r_lp_Energy>
33.378512

> <b_lp_Chiralities_Consistent>
1

> <s_lp_Variant>
sdf/inactives_sanitized.sdf:104-1

$$$$
sdf/inactives_sanitized.sdf:105
                    3D
 Schrodinger Suite 2020-1.
 86 87  0  0  1  0            999 V2000
   -0.8933    0.9580    0.3319 C   0  0  0  0  0  0
   -0.1283   -0.1433    0.2261 N   0  0  0  0  0  0
   -0.4507    2.1030    0.4446 O   0  0  0  0  0  0
    1.3287   -0.1265    0.1039 C   0  0  2  0  0  0
    1.7624    0.3358   -1.2981 C   0  0  0  0  0  0
    1.1537   -0.0716   -2.2893 O   0  0  0  0  0  0
    2.8152    1.1663   -1.3381 N   0  0  0  0  0  0
    3.4103    1.7129   -2.5591 C   0  0  2  0  0  0
    4.9483    1.6671   -2.4677 C   0  0  0  0  0  0
    5.6075    1.4463   -3.6084 N   0  0  0  0  0  0
    5.5224    1.8550   -1.3947 O   0  0  0  0  0  0
    1.8956   -1.5170    0.4706 C   0  0  0  0  0  0
    2.9065    3.1588   -2.7784 C   0  0  0  0  0  0
    3.4000   -1.6680    0.3015 C   0  0  0  0  0  0
    3.9386   -2.2020   -0.8897 C   0  0  0  0  0  0
    5.3130   -2.2151   -1.0866 C   0  0  0  0  0  0
    6.1626   -1.6837   -0.1247 C   0  0  0  0  0  0
    5.6462   -1.1277    1.0390 C   0  0  0  0  0  0
    4.2747   -1.1045    1.2546 C   0  0  0  0  0  0
    1.3920    3.2582   -3.0419 C   0  0  0  0  0  0
    0.9320    4.6845   -3.3694 C   0  0  0  0  0  0
   -0.5846    4.7691   -3.5931 C   0  0  0  0  0  0
   -1.0021    6.1454   -3.9115 N   0  3  0  0  0  0
   -2.4208    0.7381    0.2234 C   0  0  2  0  0  0
   -3.0146    1.3526   -1.0748 C   0  0  0  0  0  0
   -2.2958    0.9614   -2.3868 C   0  0  0  0  0  0
   -3.1442    1.3068    1.3721 N   0  0  0  0  0  0
   -3.1198    0.6898    2.6189 C   0  0  0  0  0  0
   -3.8312    1.4344    3.4868 O   0  0  0  0  0  0
   -2.5456   -0.3657    2.9001 O   0  0  0  0  0  0
   -3.9707    1.0344    4.8461 C   0  0  0  0  0  0
   -4.8093    2.0492    5.6054 C   0  0  0  0  0  0
   -4.2910    2.6593    6.7506 C   0  0  0  0  0  0
   -5.0592    3.5840    7.4531 C   0  0  0  0  0  0
   -6.3436    3.8936    7.0098 C   0  0  0  0  0  0
   -6.8676    3.2861    5.8706 C   0  0  0  0  0  0
   -6.1001    2.3609    5.1677 C   0  0  0  0  0  0
   -3.0415    1.3893   -3.6608 C   0  0  0  0  0  0
   -4.2361    0.5708   -3.9128 N   0  0  0  0  0  0
   -4.2427   -0.6299   -4.5203 C   0  0  0  0  0  0
   -3.1132   -1.1884   -4.9848 N   0  0  0  0  0  0
   -5.4037   -1.2835   -4.6655 N   0  3  0  0  0  0
   -0.5683   -1.0481    0.1412 H   0  0  0  0  0  0
    1.7191    0.5884    0.8319 H   0  0  0  0  0  0
    3.2684    1.4321   -0.4752 H   0  0  0  0  0  0
    3.1069    1.1047   -3.4144 H   0  0  0  0  0  0
    5.1046    1.3028   -4.4717 H   0  0  0  0  0  0
    6.6167    1.4157   -3.6104 H   0  0  0  0  0  0
    1.6572   -1.7286    1.5139 H   0  0  0  0  0  0
    1.3970   -2.2926   -0.1131 H   0  0  0  0  0  0
    3.1708    3.7788   -1.9202 H   0  0  0  0  0  0
    3.4306    3.5878   -3.6340 H   0  0  0  0  0  0
    3.2842   -2.5913   -1.6559 H   0  0  0  0  0  0
    5.7220   -2.6289   -1.9965 H   0  0  0  0  0  0
    7.2302   -1.6912   -0.2882 H   0  0  0  0  0  0
    6.3132   -0.7007    1.7733 H   0  0  0  0  0  0
    3.8798   -0.6455    2.1494 H   0  0  0  0  0  0
    1.1196    2.5889   -3.8589 H   0  0  0  0  0  0
    0.8431    2.9116   -2.1660 H   0  0  0  0  0  0
    1.2201    5.3523   -2.5562 H   0  0  0  0  0  0
    1.4551    5.0388   -4.2587 H   0  0  0  0  0  0
   -0.8842    4.1128   -4.4110 H   0  0  0  0  0  0
   -1.1181    4.4366   -2.7015 H   0  0  0  0  0  0
   -2.0014    6.1729   -4.0561 H   0  0  0  0  0  0
   -0.5340    6.4553   -4.7514 H   0  0  0  0  0  0
   -2.6277   -0.3351    0.1839 H   0  0  0  0  0  0
   -4.0622    1.0555   -1.1458 H   0  0  0  0  0  0
   -3.0209    2.4419   -1.0001 H   0  0  0  0  0  0
   -1.2615    1.3039   -2.4237 H   0  0  0  0  0  0
   -2.2491   -0.1285   -2.3859 H   0  0  0  0  0  0
   -3.6406    2.1783    1.2562 H   0  0  0  0  0  0
   -4.4518    0.0568    4.9092 H   0  0  0  0  0  0
   -2.9857    0.9442    5.3083 H   0  0  0  0  0  0
   -3.2957    2.4204    7.0968 H   0  0  0  0  0  0
   -4.6614    4.0586    8.3381 H   0  0  0  0  0  0
   -6.9393    4.6108    7.5553 H   0  0  0  0  0  0
   -7.8646    3.5308    5.5347 H   0  0  0  0  0  0
   -6.5069    1.8889    4.2849 H   0  0  0  0  0  0
   -3.4614    2.3766   -3.4660 H   0  0  0  0  0  0
   -2.3898    1.5117   -4.5263 H   0  0  0  0  0  0
   -5.1079    0.9238   -3.5438 H   0  0  0  0  0  0
   -3.1405   -2.0899   -5.4400 H   0  0  0  0  0  0
   -2.2300   -0.7099   -4.8762 H   0  0  0  0  0  0
   -5.4262   -2.1853   -5.1203 H   0  0  0  0  0  0
   -6.2622   -0.8764   -4.3223 H   0  0  0  0  0  0
   -0.7574    6.7587   -3.1469 H   0  0  0  0  0  0
  1  2  1  0  0  0
  1  3  2  0  0  0
  1 24  1  0  0  0
  2  4  1  0  0  0
  2 43  1  0  0  0
  4  5  1  0  0  0
  4 12  1  0  0  0
  4 44  1  0  0  0
  5  6  2  0  0  0
  5  7  1  0  0  0
  7  8  1  0  0  0
  7 45  1  0  0  0
  8  9  1  0  0  0
  8 13  1  0  0  0
  8 46  1  0  0  0
  9 10  1  0  0  0
  9 11  2  0  0  0
 10 47  1  0  0  0
 10 48  1  0  0  0
 12 14  1  0  0  0
 12 49  1  0  0  0
 12 50  1  0  0  0
 13 20  1  0  0  0
 13 51  1  0  0  0
 13 52  1  0  0  0
 14 15  2  0  0  0
 14 19  1  0  0  0
 15 16  1  0  0  0
 15 53  1  0  0  0
 16 17  2  0  0  0
 16 54  1  0  0  0
 17 18  1  0  0  0
 17 55  1  0  0  0
 18 19  2  0  0  0
 18 56  1  0  0  0
 19 57  1  0  0  0
 20 21  1  0  0  0
 20 58  1  0  0  0
 20 59  1  0  0  0
 21 22  1  0  0  0
 21 60  1  0  0  0
 21 61  1  0  0  0
 22 23  1  0  0  0
 22 62  1  0  0  0
 22 63  1  0  0  0
 23 64  1  0  0  0
 23 65  1  0  0  0
 23 86  1  0  0  0
 24 25  1  0  0  0
 24 27  1  0  0  0
 24 66  1  0  0  0
 25 26  1  0  0  0
 25 67  1  0  0  0
 25 68  1  0  0  0
 26 38  1  0  0  0
 26 69  1  0  0  0
 26 70  1  0  0  0
 27 28  1  0  0  0
 27 71  1  0  0  0
 28 29  1  0  0  0
 28 30  2  0  0  0
 29 31  1  0  0  0
 31 32  1  0  0  0
 31 72  1  0  0  0
 31 73  1  0  0  0
 32 33  2  0  0  0
 32 37  1  0  0  0
 33 34  1  0  0  0
 33 74  1  0  0  0
 34 35  2  0  0  0
 34 75  1  0  0  0
 35 36  1  0  0  0
 35 76  1  0  0  0
 36 37  2  0  0  0
 36 77  1  0  0  0
 37 78  1  0  0  0
 38 39  1  0  0  0
 38 79  1  0  0  0
 38 80  1  0  0  0
 39 40  1  0  0  0
 39 81  1  0  0  0
 40 41  1  0  0  0
 40 42  2  0  0  0
 41 82  1  0  0  0
 41 83  1  0  0  0
 42 84  1  0  0  0
 42 85  1  0  0  0
M  CHG  2  23   1  42   1
M  END
> <chembl_id>
CHEMBL2382082

> <chembl_pref_name>
None

> <i_m_ct_stereo_status>
1

> <s_m_source_file>
sdf/inactives_sanitized.sdf

> <i_m_source_file_index>
105

> <i_lp_mmshare_version>
49012

> <i_f3d_flags>
0

> <s_epik_input>
W05IMl1bQ0gyXVtDSDJdW0NIMl1bQ0gyXVtDQEBIXShDKD1PKVtOSDJdKVtOSF1DKD1PKVtDQEhdKFtDSDJdYzFbY0hdW2NIXVtjSF1bY0hdW2NIXTEpW05IXUMoPU8pW0NASF0oW0NIMl1bQ0gyXVtDSDJdW05IXS9DKFtOSDJdKT1OL1tIXSlbTkhdQyg9TylPW0NIMl1jMltjSF1bY0hdW2NIXVtjSF1bY0hdMg==

> <s_epik_cmdline>
J2VwaWtfcHl0aG9uJywgJy1waHQnLCAnMC41JywgJy1waCcsICc3LjUnLCAnLW50JywgJy1tYScsICcyMDAnLCAnLWltYWUnLCAnPGluZmlsZS5tYWU+JywgJy1vbWFlJywgJzxvdXRmaWxlLm1hZT4n

> <r_lp_tautomer_probability>
1

> <r_epik_Ionization_Penalty>
  0.0014

> <r_epik_Ionization_Penalty_Charging>
  0.0014

> <r_epik_Ionization_Penalty_Neutral>
  0.0000

> <r_epik_State_Penalty>
 -0.0000

> <r_epik_Charging_Adjusted_Penalty>
0.00141209041038766

> <i_epik_Tot_Q>
2

> <i_epik_Tot_abs_Q>
2

> <s_epik_Chemistry_Notes>
This compound has an ester and may undergo hydrolysis at high or low pH. This compound has an imine and may undergo hydrolysis.

> <s_lp_Force_Field>
OPLS3e

> <r_lp_Energy>
32.661727

> <b_lp_Chiralities_Consistent>
1

> <s_lp_Variant>
sdf/inactives_sanitized.sdf:105-1

$$$$
sdf/inactives_sanitized.sdf:106
                    3D
 Schrodinger Suite 2020-1.
 69 71  0  0  1  0            999 V2000
   -3.1837   -3.8728   -6.9509 C   0  0  0  0  0  0
   -4.0484   -3.4434   -5.9459 C   0  0  0  0  0  0
   -3.6988   -2.3514   -5.1555 C   0  0  0  0  0  0
   -2.4857   -1.6943   -5.3747 C   0  0  0  0  0  0
   -1.6217   -2.1290   -6.3825 C   0  0  0  0  0  0
   -1.9722   -3.2209   -7.1726 C   0  0  0  0  0  0
   -2.1059   -0.5027   -4.5153 C   0  0  0  0  0  0
   -1.5761   -0.9592   -3.2768 O   0  0  0  0  0  0
   -1.1144   -0.0852   -2.3617 C   0  0  0  0  0  0
   -0.6652   -0.7933   -1.2524 N   0  0  0  0  0  0
   -1.0962    1.1404   -2.5040 O   0  0  0  0  0  0
   -0.0877   -0.1013   -0.0893 C   0  0  2  0  0  0
    1.4271    0.1698   -0.2669 C   0  0  0  0  0  0
    2.1438   -0.6503   -0.8442 O   0  0  0  0  0  0
    1.8796    1.3008    0.2986 N   0  0  0  0  0  0
    3.2828    1.7035    0.3854 C   0  0  2  0  0  0
    3.4953    2.4738    1.7068 C   0  0  0  0  0  0
    4.5755    2.1519    2.4238 N   0  0  0  0  0  0
    2.7094    3.3571    2.0504 O   0  0  0  0  0  0
   -0.3906   -0.8917    1.2162 C   0  0  0  0  0  0
    3.6448    2.5402   -0.8687 C   0  0  0  0  0  0
    0.0650   -0.1706    2.4869 C   0  0  0  0  0  0
   -0.4297    1.0996    2.7934 C   0  0  0  0  0  0
    0.0525    1.7867    3.9030 C   0  0  0  0  0  0
    1.0255    1.2093    4.7248 C   0  0  0  0  0  0
    1.4967   -0.0753    4.4301 C   0  0  0  0  0  0
    1.0159   -0.7635    3.3198 C   0  0  0  0  0  0
    5.1509    2.8131   -1.0364 C   0  0  0  0  0  0
    5.4649    3.5948   -2.3203 C   0  0  0  0  0  0
    6.9673    3.8494   -2.5043 C   0  0  0  0  0  0
    7.2346    4.5998   -3.7430 N   0  3  0  0  0  0
    1.5571    1.9909    5.8842 C   0  0  0  0  0  0
    1.6079    3.3750    6.0589 C   0  0  0  0  0  0
    2.1704    3.7671    7.2773 C   0  0  0  0  0  0
    2.5564    2.6892    8.0564 C   0  0  0  0  0  0
    2.2230    1.1775    7.2790 S   0  0  0  0  0  0
   -3.4552   -4.7198   -7.5640 H   0  0  0  0  0  0
   -4.9854   -3.9545   -5.7808 H   0  0  0  0  0  0
   -4.3680   -2.0179   -4.3755 H   0  0  0  0  0  0
   -0.6819   -1.6243   -6.5539 H   0  0  0  0  0  0
   -1.3080   -3.5605   -7.9537 H   0  0  0  0  0  0
   -1.3759    0.1147   -5.0422 H   0  0  0  0  0  0
   -2.9866    0.1203   -4.3488 H   0  0  0  0  0  0
   -0.6951   -1.8022   -1.2562 H   0  0  0  0  0  0
   -0.5982    0.8585    0.0271 H   0  0  0  0  0  0
    1.2256    1.9097    0.7697 H   0  0  0  0  0  0
    3.8993    0.8014    0.4016 H   0  0  0  0  0  0
    5.1999    1.4232    2.1111 H   0  0  0  0  0  0
    4.7647    2.6294    3.2932 H   0  0  0  0  0  0
   -1.4624   -1.0759    1.3080 H   0  0  0  0  0  0
    0.0643   -1.8832    1.1649 H   0  0  0  0  0  0
    3.3018    2.0130   -1.7611 H   0  0  0  0  0  0
    3.1005    3.4868   -0.8601 H   0  0  0  0  0  0
   -1.1717    1.5669    2.1629 H   0  0  0  0  0  0
   -0.3304    2.7745    4.1132 H   0  0  0  0  0  0
    2.2529   -0.5417    5.0442 H   0  0  0  0  0  0
    1.4088   -1.7439    3.0927 H   0  0  0  0  0  0
    5.5229    3.3716   -0.1769 H   0  0  0  0  0  0
    5.6910    1.8655   -1.0444 H   0  0  0  0  0  0
    5.0792    3.0471   -3.1815 H   0  0  0  0  0  0
    4.9330    4.5472   -2.3003 H   0  0  0  0  0  0
    7.3630    4.4145   -1.6596 H   0  0  0  0  0  0
    7.5101    2.9041   -2.5432 H   0  0  0  0  0  0
    8.2284    4.7551   -3.8363 H   0  0  0  0  0  0
    6.7583    5.4900   -3.7090 H   0  0  0  0  0  0
    1.2525    4.0816    5.3231 H   0  0  0  0  0  0
    2.2903    4.7975    7.5781 H   0  0  0  0  0  0
    3.0126    2.7111    9.0350 H   0  0  0  0  0  0
    6.9016    4.0712   -4.5369 H   0  0  0  0  0  0
  1  2  2  0  0  0
  1  6  1  0  0  0
  1 37  1  0  0  0
  2  3  1  0  0  0
  2 38  1  0  0  0
  3  4  2  0  0  0
  3 39  1  0  0  0
  4  5  1  0  0  0
  4  7  1  0  0  0
  5  6  2  0  0  0
  5 40  1  0  0  0
  6 41  1  0  0  0
  7  8  1  0  0  0
  7 42  1  0  0  0
  7 43  1  0  0  0
  8  9  1  0  0  0
  9 10  1  0  0  0
  9 11  2  0  0  0
 10 12  1  0  0  0
 10 44  1  0  0  0
 12 13  1  0  0  0
 12 20  1  0  0  0
 12 45  1  0  0  0
 13 14  2  0  0  0
 13 15  1  0  0  0
 15 16  1  0  0  0
 15 46  1  0  0  0
 16 17  1  0  0  0
 16 21  1  0  0  0
 16 47  1  0  0  0
 17 18  1  0  0  0
 17 19  2  0  0  0
 18 48  1  0  0  0
 18 49  1  0  0  0
 20 22  1  0  0  0
 20 50  1  0  0  0
 20 51  1  0  0  0
 21 28  1  0  0  0
 21 52  1  0  0  0
 21 53  1  0  0  0
 22 23  2  0  0  0
 22 27  1  0  0  0
 23 24  1  0  0  0
 23 54  1  0  0  0
 24 25  2  0  0  0
 24 55  1  0  0  0
 25 26  1  0  0  0
 25 32  1  0  0  0
 26 27  2  0  0  0
 26 56  1  0  0  0
 27 57  1  0  0  0
 28 29  1  0  0  0
 28 58  1  0  0  0
 28 59  1  0  0  0
 29 30  1  0  0  0
 29 60  1  0  0  0
 29 61  1  0  0  0
 30 31  1  0  0  0
 30 62  1  0  0  0
 30 63  1  0  0  0
 31 64  1  0  0  0
 31 65  1  0  0  0
 31 69  1  0  0  0
 32 33  2  0  0  0
 32 36  1  0  0  0
 33 34  1  0  0  0
 33 66  1  0  0  0
 34 35  2  0  0  0
 34 67  1  0  0  0
 35 36  1  0  0  0
 35 68  1  0  0  0
M  CHG  1  31   1
M  END
> <chembl_id>
CHEMBL2382005

> <chembl_pref_name>
None

> <i_m_ct_stereo_status>
1

> <s_m_source_file>
sdf/inactives_sanitized.sdf

> <i_m_source_file_index>
106

> <i_lp_mmshare_version>
49012

> <i_f3d_flags>
0

> <s_epik_input>
W2NIXTFbY0hdW2NIXVtjSF1bY0hdYzFbQ0gyXU9DKD1PKVtOSF1bQ0BIXShDKD1PKVtOSF1bQ0BIXShDKD1PKVtOSDJdKVtDSDJdW0NIMl1bQ0gyXVtDSDJdW05IMl0pW0NIMl1jMltjSF1bY0hdYyhbY0hdW2NIXTIpLWMzW2NIXVtjSF1bY0hdczM=

> <s_epik_cmdline>
J2VwaWtfcHl0aG9uJywgJy1waHQnLCAnMC41JywgJy1waCcsICc3LjUnLCAnLW50JywgJy1tYScsICcyMDAnLCAnLWltYWUnLCAnPGluZmlsZS5tYWU+JywgJy1vbWFlJywgJzxvdXRmaWxlLm1hZT4n

> <r_lp_tautomer_probability>
1

> <r_epik_Ionization_Penalty>
  0.0014

> <r_epik_Ionization_Penalty_Charging>
  0.0014

> <r_epik_Ionization_Penalty_Neutral>
  0.0000

> <r_epik_State_Penalty>
 -0.0000

> <r_epik_Charging_Adjusted_Penalty>
0.00140340395202934

> <i_epik_Tot_Q>
1

> <i_epik_Tot_abs_Q>
1

> <s_epik_Chemistry_Notes>
This compound has an ester and may undergo hydrolysis at high or low pH.

> <s_lp_Force_Field>
OPLS3e

> <r_lp_Energy>
31.281053

> <b_lp_Chiralities_Consistent>
1

> <s_lp_Variant>
sdf/inactives_sanitized.sdf:106-1

$$$$
sdf/inactives_sanitized.sdf:107
                    3D
 Schrodinger Suite 2020-1.
 69 72  0  0  1  0            999 V2000
   -2.2556    1.4057   -0.2294 C   0  0  0  0  0  0
   -2.9837    0.2086   -0.1592 C   0  0  0  0  0  0
   -2.3422   -1.0137    0.0321 C   0  0  0  0  0  0
   -0.9571   -1.0614    0.1611 C   0  0  0  0  0  0
   -0.2019    0.1158    0.1065 C   0  0  0  0  0  0
   -0.8601    1.3350   -0.0965 C   0  0  0  0  0  0
    1.3269    0.0871    0.2403 C   0  0  2  0  0  0
    1.9558   -0.4197   -1.0756 C   0  0  0  0  0  0
    1.8337   -0.7040    1.4831 C   0  0  0  0  0  0
    1.2492   -0.2661    2.8518 C   0  0  0  0  0  0
    1.5558    1.2050    3.1948 C   0  0  0  0  0  0
    1.7281   -1.1998    3.9788 C   0  0  0  0  0  0
    2.0571   -1.6277   -1.2970 O   0  0  0  0  0  0
    2.3602    0.5172   -1.9515 N   0  0  0  0  0  0
    2.9349    0.2339   -3.2641 C   0  0  0  0  0  0
    1.9830   -0.4217   -4.1785 C   0  0  0  0  0  0
    1.2359   -0.9362   -4.8968 N   0  0  0  0  0  0
   -2.9436    2.7173   -0.4396 C   0  0  0  0  0  0
   -2.4353    3.8972    0.1220 C   0  0  0  0  0  0
   -3.0729    5.1193   -0.0761 C   0  0  0  0  0  0
   -4.2345    5.1837   -0.8405 C   0  0  0  0  0  0
   -4.7747    4.0278   -1.4163 C   0  0  0  0  0  0
   -4.1167    2.8060   -1.2055 C   0  0  0  0  0  0
   -6.0301    4.1115   -2.2368 C   0  0  0  0  0  0
   -6.7328    3.0205   -2.5035 N   0  0  0  0  0  0
   -7.8070    3.2385   -3.2257 C   0  0  0  0  0  0
   -8.0292    4.9013   -3.6575 S   0  0  0  0  0  0
   -6.5762    5.2739   -2.7870 C   0  0  0  0  0  0
   -8.7727    2.1382   -3.6256 C   0  0  0  0  0  0
   -9.4325    1.5125   -2.4732 N   0  0  0  0  0  0
  -10.1824    0.3292   -2.9153 C   0  0  0  0  0  0
  -10.7779   -0.4229   -1.7047 C   0  0  0  0  0  0
  -11.7124    0.5272   -0.9348 N   0  3  0  0  0  0
  -10.9619    1.8120   -0.5416 C   0  0  0  0  0  0
  -10.3566    2.4481   -1.8117 C   0  0  0  0  0  0
   -4.0604    0.2153   -0.2438 H   0  0  0  0  0  0
   -2.9198   -1.9249    0.0815 H   0  0  0  0  0  0
   -0.4725   -2.0162    0.3037 H   0  0  0  0  0  0
   -0.2715    2.2385   -0.1599 H   0  0  0  0  0  0
    1.6647    1.1167    0.3738 H   0  0  0  0  0  0
    1.6291   -1.7676    1.3461 H   0  0  0  0  0  0
    2.9220   -0.6283    1.5309 H   0  0  0  0  0  0
    0.1641   -0.3673    2.8050 H   0  0  0  0  0  0
    2.6297    1.3940    3.2177 H   0  0  0  0  0  0
    1.1520    1.4740    4.1716 H   0  0  0  0  0  0
    1.1111    1.8891    2.4723 H   0  0  0  0  0  0
    2.8101   -1.1497    4.1069 H   0  0  0  0  0  0
    1.4670   -2.2381    3.7707 H   0  0  0  0  0  0
    1.2694   -0.9373    4.9328 H   0  0  0  0  0  0
    2.1865    1.4882   -1.7369 H   0  0  0  0  0  0
    3.2484    1.1716   -3.7224 H   0  0  0  0  0  0
    3.8249   -0.3904   -3.1705 H   0  0  0  0  0  0
   -1.5427    3.8763    0.7295 H   0  0  0  0  0  0
   -2.6686    6.0173    0.3669 H   0  0  0  0  0  0
   -4.7131    6.1428   -0.9733 H   0  0  0  0  0  0
   -4.5165    1.9112   -1.6599 H   0  0  0  0  0  0
   -6.2105    6.2884   -2.7308 H   0  0  0  0  0  0
   -9.5238    2.5099   -4.3253 H   0  0  0  0  0  0
   -8.2126    1.3752   -4.1690 H   0  0  0  0  0  0
  -10.9708    0.6102   -3.6169 H   0  0  0  0  0  0
   -9.5145   -0.3466   -3.4523 H   0  0  0  0  0  0
  -11.3975   -1.2696   -2.0011 H   0  0  0  0  0  0
  -10.0198   -0.7592   -0.9949 H   0  0  0  0  0  0
  -12.5039    0.7647   -1.5162 H   0  0  0  0  0  0
  -11.7036    2.4533   -0.0650 H   0  0  0  0  0  0
  -10.2077    1.5226    0.1924 H   0  0  0  0  0  0
   -9.8243    3.3549   -1.5217 H   0  0  0  0  0  0
  -11.1471    2.7595   -2.4979 H   0  0  0  0  0  0
  -12.0684    0.0680   -0.1083 H   0  0  0  0  0  0
  1 18  1  0  0  0
  1  6  2  0  0  0
  1  2  1  0  0  0
  2  3  2  0  0  0
  2 36  1  0  0  0
  3  4  1  0  0  0
  3 37  1  0  0  0
  4  5  2  0  0  0
  4 38  1  0  0  0
  5  6  1  0  0  0
  5  7  1  0  0  0
  6 39  1  0  0  0
  7  9  1  0  0  0
  7  8  1  0  0  0
  7 40  1  0  0  0
  8 13  2  0  0  0
  8 14  1  0  0  0
  9 10  1  0  0  0
  9 41  1  0  0  0
  9 42  1  0  0  0
 10 11  1  0  0  0
 10 12  1  0  0  0
 10 43  1  0  0  0
 11 44  1  0  0  0
 11 45  1  0  0  0
 11 46  1  0  0  0
 12 47  1  0  0  0
 12 48  1  0  0  0
 12 49  1  0  0  0
 14 15  1  0  0  0
 14 50  1  0  0  0
 15 16  1  0  0  0
 15 51  1  0  0  0
 15 52  1  0  0  0
 16 17  3  0  0  0
 18 19  2  0  0  0
 18 23  1  0  0  0
 19 20  1  0  0  0
 19 53  1  0  0  0
 20 21  2  0  0  0
 20 54  1  0  0  0
 21 22  1  0  0  0
 21 55  1  0  0  0
 22 23  2  0  0  0
 22 24  1  0  0  0
 23 56  1  0  0  0
 24 25  1  0  0  0
 24 28  2  0  0  0
 25 26  2  0  0  0
 26 27  1  0  0  0
 26 29  1  0  0  0
 27 28  1  0  0  0
 28 57  1  0  0  0
 29 30  1  0  0  0
 29 58  1  0  0  0
 29 59  1  0  0  0
 30 31  1  0  0  0
 30 35  1  0  0  0
 31 32  1  0  0  0
 31 60  1  0  0  0
 31 61  1  0  0  0
 32 33  1  0  0  0
 32 62  1  0  0  0
 32 63  1  0  0  0
 33 34  1  0  0  0
 33 64  1  0  0  0
 33 69  1  0  0  0
 34 35  1  0  0  0
 34 65  1  0  0  0
 34 66  1  0  0  0
 35 67  1  0  0  0
 35 68  1  0  0  0
M  CHG  1  33   1
M  END
> <chembl_id>
CHEMBL213194

> <chembl_pref_name>
None

> <i_m_ct_stereo_status>
1

> <s_m_source_file>
sdf/inactives_sanitized.sdf

> <i_m_source_file_index>
107

> <i_lp_mmshare_version>
49012

> <i_f3d_flags>
0

> <s_epik_input>
TiNDW0NIMl1bTkhdQyg9TylbQ0BIXShbQ0gyXVtDSF0oW0NIM10pW0NIM10pYyhbY0hdMSlbY0hdW2NIXVtjSF1jMS1jMltjSF1bY0hdW2NIXWMoW2NIXTIpLWMzbmMoc1tjSF0zKVtDSDJdTjRbQ0gyXVtDSDJdW05IXVtDSDJdW0NIMl00

> <s_epik_cmdline>
J2VwaWtfcHl0aG9uJywgJy1waHQnLCAnMC41JywgJy1waCcsICc3LjUnLCAnLW50JywgJy1tYScsICcyMDAnLCAnLWltYWUnLCAnPGluZmlsZS5tYWU+JywgJy1vbWFlJywgJzxvdXRmaWxlLm1hZT4n

> <r_lp_tautomer_probability>
1

> <r_epik_Ionization_Penalty>
  0.0264

> <r_epik_Ionization_Penalty_Charging>
  0.0263

> <r_epik_Ionization_Penalty_Neutral>
  0.0001

> <r_epik_State_Penalty>
 -0.0000

> <r_epik_Charging_Adjusted_Penalty>
0.0262986678981471

> <i_epik_Tot_Q>
1

> <i_epik_Tot_abs_Q>
1

> <s_lp_Force_Field>
OPLS3e

> <r_lp_Energy>
53.788053

> <b_lp_Chiralities_Consistent>
1

> <s_lp_Variant>
sdf/inactives_sanitized.sdf:107-1

$$$$
sdf/inactives_sanitized.sdf:108
                    3D
 Schrodinger Suite 2020-1.
 85 87  0  0  1  0            999 V2000
    1.6700   -1.7189   -2.1176 C   0  0  0  0  0  0
   -3.1573    1.9376   -0.9476 C   0  0  0  0  0  0
   -0.4697    0.3169   -0.6961 C   0  0  0  0  0  0
    1.6249   -0.3830   -1.9432 N   0  0  0  0  0  0
   -1.0156    1.2595    0.0999 N   0  0  0  0  0  0
   -2.4680    3.0936   -1.7831 C   0  0  0  0  0  0
    1.0681    0.3677   -0.8061 C   0  0  2  0  0  0
   -2.4483    1.5246    0.3539 C   0  0  2  0  0  0
    2.5094   -2.2168   -3.3229 C   0  0  0  0  0  0
   -0.7430    1.2009   -5.2795 N   0  0  0  0  0  0
    1.1358   -2.5151   -1.3439 O   0  0  0  0  0  0
   -4.2030    1.4245   -1.3559 O   0  0  0  0  0  0
   -1.1230   -0.5184   -1.3213 O   0  0  0  0  0  0
   -1.7844    3.9634   -1.2406 O   0  0  0  0  0  0
    1.7485   -0.0418    0.5305 C   0  0  0  0  0  0
    1.8798   -3.4188   -4.0511 C   0  0  0  0  0  0
    3.9783   -2.4528   -2.9253 C   0  0  0  0  0  0
   -2.6782    2.9509   -3.1036 N   0  0  0  0  0  0
   -0.7658   -0.8101   -7.3003 O   0  0  0  0  0  0
   -0.0665    2.0134   -4.2653 C   0  0  0  0  0  0
   -0.5098    3.4959   -4.2863 C   0  0  0  0  0  0
   -0.6696   -0.2264   -4.9471 C   0  0  0  0  0  0
   -0.2656    1.4818   -6.6408 C   0  0  0  0  0  0
   -3.1450    0.3519    1.1025 C   0  0  0  0  0  0
    3.2915    0.0862    0.5508 C   0  0  0  0  0  0
   -2.0329    3.7451   -4.1485 C   0  0  0  0  0  0
   -0.9326    0.5525   -7.6782 C   0  0  0  0  0  0
   -1.3455   -1.0906   -6.0311 C   0  0  0  0  0  0
    4.3308   -3.2209   -1.8046 C   0  0  0  0  0  0
    4.9901   -1.8730   -3.7002 C   0  0  0  0  0  0
    1.7352   -4.6659   -3.4255 C   0  0  0  0  0  0
    1.4458   -3.2651   -5.3737 C   0  0  0  0  0  0
    3.8769   -0.4791    1.8625 C   0  0  0  0  0  0
    3.7696    1.5266    0.2702 C   0  0  0  0  0  0
   -4.4664    0.7292    1.7959 C   0  0  0  0  0  0
    6.3287   -2.0562   -3.3646 C   0  0  0  0  0  0
    1.1621   -5.7349   -4.1089 C   0  0  0  0  0  0
    0.8725   -4.3334   -6.0575 C   0  0  0  0  0  0
    5.6691   -3.4036   -1.4684 C   0  0  0  0  0  0
    6.6625   -2.8208   -2.2501 C   0  0  0  0  0  0
    0.7322   -5.5638   -5.4219 C   0  0  0  0  0  0
    2.0859    0.1925   -2.6328 H   0  0  0  0  0  0
   -0.3868    1.8908    0.5750 H   0  0  0  0  0  0
    1.3111    1.4102   -1.0128 H   0  0  0  0  0  0
   -2.4722    2.3821    1.0282 H   0  0  0  0  0  0
    2.5139   -1.3912   -4.0391 H   0  0  0  0  0  0
    1.3470    0.5663    1.3426 H   0  0  0  0  0  0
    1.4715   -1.0671    0.7783 H   0  0  0  0  0  0
   -3.2596    2.1868   -3.4176 H   0  0  0  0  0  0
   -0.2930    1.6108   -3.2779 H   0  0  0  0  0  0
    1.0156    1.9366   -4.3856 H   0  0  0  0  0  0
   -0.0093    3.9941   -3.4551 H   0  0  0  0  0  0
   -0.1136    4.0038   -5.1660 H   0  0  0  0  0  0
    0.3733   -0.5203   -4.8252 H   0  0  0  0  0  0
   -1.1484   -0.4009   -3.9832 H   0  0  0  0  0  0
   -0.4602    2.5236   -6.8956 H   0  0  0  0  0  0
    0.8182    1.3585   -6.6802 H   0  0  0  0  0  0
   -3.3101   -0.4909    0.4286 H   0  0  0  0  0  0
   -2.4690   -0.0273    1.8708 H   0  0  0  0  0  0
    3.6896   -0.5433   -0.2456 H   0  0  0  0  0  0
   -2.2400    4.8048   -3.9889 H   0  0  0  0  0  0
   -2.5240    3.4566   -5.0786 H   0  0  0  0  0  0
   -0.4769    0.7016   -8.6571 H   0  0  0  0  0  0
   -1.9925    0.7897   -7.7899 H   0  0  0  0  0  0
   -1.2097   -2.1480   -5.8061 H   0  0  0  0  0  0
   -2.4231   -0.9167   -6.0541 H   0  0  0  0  0  0
    3.5725   -3.6736   -1.1835 H   0  0  0  0  0  0
    4.7432   -1.2787   -4.5680 H   0  0  0  0  0  0
    2.0593   -4.8137   -2.4069 H   0  0  0  0  0  0
    1.5510   -2.3171   -5.8810 H   0  0  0  0  0  0
    4.3366    0.2889    2.4846 H   0  0  0  0  0  0
    4.6417   -1.2278    1.6531 H   0  0  0  0  0  0
    3.1154   -0.9632    2.4748 H   0  0  0  0  0  0
    2.9733    2.2570    0.4150 H   0  0  0  0  0  0
    4.1161    1.6205   -0.7596 H   0  0  0  0  0  0
    4.5988    1.8271    0.9109 H   0  0  0  0  0  0
   -4.8762   -0.1243    2.3364 H   0  0  0  0  0  0
   -5.2223    1.0552    1.0818 H   0  0  0  0  0  0
   -4.3185    1.5344    2.5161 H   0  0  0  0  0  0
    7.1048   -1.6073   -3.9668 H   0  0  0  0  0  0
    1.0507   -6.6924   -3.6215 H   0  0  0  0  0  0
    0.5376   -4.2066   -7.0766 H   0  0  0  0  0  0
    5.9352   -3.9941   -0.6040 H   0  0  0  0  0  0
    7.7012   -2.9627   -1.9897 H   0  0  0  0  0  0
    0.2862   -6.3926   -5.9518 H   0  0  0  0  0  0
  1  4  1  0  0  0
  1  9  1  0  0  0
  1 11  2  0  0  0
  2  8  1  0  0  0
  2  6  1  0  0  0
  2 12  2  0  0  0
  3  7  1  0  0  0
  3  5  1  0  0  0
  3 13  2  0  0  0
  4  7  1  0  0  0
  4 42  1  0  0  0
  5  8  1  0  0  0
  5 43  1  0  0  0
  6 14  2  0  0  0
  6 18  1  0  0  0
  7 15  1  0  0  0
  7 44  1  0  0  0
  8 24  1  0  0  0
  8 45  1  0  0  0
  9 16  1  0  0  0
  9 17  1  0  0  0
  9 46  1  0  0  0
 10 20  1  0  0  0
 10 22  1  0  0  0
 10 23  1  0  0  0
 15 25  1  0  0  0
 15 47  1  0  0  0
 15 48  1  0  0  0
 16 31  2  0  0  0
 16 32  1  0  0  0
 17 29  2  0  0  0
 17 30  1  0  0  0
 18 26  1  0  0  0
 18 49  1  0  0  0
 19 27  1  0  0  0
 19 28  1  0  0  0
 20 21  1  0  0  0
 20 50  1  0  0  0
 20 51  1  0  0  0
 21 26  1  0  0  0
 21 52  1  0  0  0
 21 53  1  0  0  0
 22 28  1  0  0  0
 22 54  1  0  0  0
 22 55  1  0  0  0
 23 27  1  0  0  0
 23 56  1  0  0  0
 23 57  1  0  0  0
 24 35  1  0  0  0
 24 58  1  0  0  0
 24 59  1  0  0  0
 25 33  1  0  0  0
 25 34  1  0  0  0
 25 60  1  0  0  0
 26 61  1  0  0  0
 26 62  1  0  0  0
 27 63  1  0  0  0
 27 64  1  0  0  0
 28 65  1  0  0  0
 28 66  1  0  0  0
 29 39  1  0  0  0
 29 67  1  0  0  0
 30 36  2  0  0  0
 30 68  1  0  0  0
 31 37  1  0  0  0
 31 69  1  0  0  0
 32 38  2  0  0  0
 32 70  1  0  0  0
 33 71  1  0  0  0
 33 72  1  0  0  0
 33 73  1  0  0  0
 34 74  1  0  0  0
 34 75  1  0  0  0
 34 76  1  0  0  0
 35 77  1  0  0  0
 35 78  1  0  0  0
 35 79  1  0  0  0
 36 40  1  0  0  0
 36 80  1  0  0  0
 37 41  2  0  0  0
 37 81  1  0  0  0
 38 41  1  0  0  0
 38 82  1  0  0  0
 39 40  2  0  0  0
 39 83  1  0  0  0
 40 84  1  0  0  0
 41 85  1  0  0  0
M  END
> <chembl_id>
CHEMBL132886

> <chembl_pref_name>
None

> <s_m_source_file>
sdf/inactives_sanitized.sdf

> <i_m_source_file_index>
108

> <i_lp_mmshare_version>
49012

> <i_m_ct_stereo_status>
1

> <i_f3d_flags>
0

> <s_epik_input>
W2NIXTFbY0hdW2NIXVtjSF1bY0hdYzFbQ0hdKGMyW2NIXVtjSF1bY0hdW2NIXVtjSF0yKUMoPU8pW05IXVtDQEhdKFtDSDJdW0NIXShbQ0gzXSlbQ0gzXSlDKD1PKVtOSF1bQ0BIXShbQ0gyXVtDSDNdKUMoPU8pQyg9TylbTkhdW0NIMl1bQ0gyXVtDSDJdTjNbQ0gyXVtDSDJdT1tDSDJdW0NIMl0z

> <s_epik_cmdline>
J2VwaWtfcHl0aG9uJywgJy1waHQnLCAnMC41JywgJy1waCcsICc3LjUnLCAnLW50JywgJy1tYScsICcyMDAnLCAnLWltYWUnLCAnPGluZmlsZS5tYWU+JywgJy1vbWFlJywgJzxvdXRmaWxlLm1hZT4n

> <r_lp_tautomer_probability>
0.99990000499975

> <r_epik_Ionization_Penalty>
  0.1906

> <r_epik_Ionization_Penalty_Charging>
  0.0000

> <r_epik_Ionization_Penalty_Neutral>
  0.1906

> <r_epik_State_Penalty>
  0.1802

> <r_epik_Charging_Adjusted_Penalty>
0.18023018386228

> <i_epik_Tot_Q>
0

> <i_epik_Tot_abs_Q>
0

> <s_lp_Force_Field>
OPLS3e

> <r_lp_Energy>
43.980039

> <b_lp_Chiralities_Consistent>
1

> <s_lp_Variant>
sdf/inactives_sanitized.sdf:108-1

$$$$
sdf/inactives_sanitized.sdf:109
                    3D
 Schrodinger Suite 2020-1.
 77 79  0  0  1  0            999 V2000
   -0.5846   -0.7545    0.1775 C   0  0  0  0  0  0
   -1.2601    0.6277    0.1881 C   0  0  0  0  0  0
   -0.4845    1.7270    0.1241 N   0  0  0  0  0  0
   -2.4881    0.6863    0.2528 O   0  0  0  0  0  0
   -0.9735    3.1067    0.0753 C   0  0  2  0  0  0
   -1.6754    3.4389   -1.2527 C   0  0  0  0  0  0
    0.2140    4.0547    0.3024 C   0  0  0  0  0  0
   -2.6902    4.3201   -1.1724 N   0  0  0  0  0  0
   -1.2852    2.9233   -2.3012 O   0  0  0  0  0  0
   -3.4888    4.8343   -2.2983 C   0  0  2  0  0  0
   -2.6525    5.7623   -3.1779 C   0  0  0  0  0  0
   -4.7015    5.5991   -1.7308 C   0  0  0  0  0  0
   -3.1959    5.8765   -4.4105 O   0  0  0  0  0  0
   -1.6207    6.3296   -2.8038 O   0  0  0  0  0  0
   -2.5825    6.6888   -5.4009 C   0  0  0  0  0  0
    0.9631   -0.7399    0.1240 C   0  0  2  0  0  0
    3.4515   -3.1296    6.6743 O   0  0  0  0  0  0
    3.9740   -3.1919    5.4355 C   0  0  0  0  0  0
    3.6028   -4.4003    4.8580 N   0  0  0  0  0  0
    4.6627   -2.3108    4.9148 O   0  0  0  0  0  0
    3.6835   -2.0017    7.5081 C   0  0  0  0  0  0
    3.0889   -2.2599    8.8798 C   0  0  0  0  0  0
    1.7891   -1.8365    9.1669 C   0  0  0  0  0  0
    1.2443   -2.0771   10.4258 C   0  0  0  0  0  0
    2.0012   -2.7397   11.3903 C   0  0  0  0  0  0
    3.2980   -3.1647   11.1078 C   0  0  0  0  0  0
    3.8436   -2.9245    9.8494 C   0  0  0  0  0  0
    4.0518   -4.7839    3.5044 C   0  0  2  0  0  0
    3.1578   -4.2861    2.3380 C   0  0  0  0  0  0
    4.3316   -6.3096    3.4601 C   0  0  0  0  0  0
    5.3832   -6.8073    4.4402 C   0  0  0  0  0  0
    6.7539   -6.6877    4.1270 C   0  0  0  0  0  0
    7.7146   -7.0511    5.0616 C   0  0  0  0  0  0
    7.3326   -7.5052    6.3178 C   0  0  0  0  0  0
    5.9875   -7.5900    6.6552 C   0  0  0  0  0  0
    5.0118   -7.2328    5.7340 C   0  0  0  0  0  0
    2.1259   -3.4712    2.6279 N   0  0  0  0  0  0
    3.4350   -4.6349    1.1895 O   0  0  0  0  0  0
    1.2009   -2.9170    1.6435 C   0  0  0  0  0  0
    1.8112   -1.7652    0.8170 C   0  0  2  0  0  0
    1.6497   -0.4582    1.3174 O   0  0  0  0  0  0
   -0.9476   -1.2833    1.0566 H   0  0  0  0  0  0
   -0.9595   -1.3017   -0.6880 H   0  0  0  0  0  0
    0.5181    1.6176    0.0762 H   0  0  0  0  0  0
   -1.6852    3.2427    0.8922 H   0  0  0  0  0  0
   -0.1053    5.0977    0.2985 H   0  0  0  0  0  0
    0.9734    3.9383   -0.4720 H   0  0  0  0  0  0
    0.6891    3.8636    1.2651 H   0  0  0  0  0  0
   -2.9324    4.6955   -0.2669 H   0  0  0  0  0  0
   -3.8643    3.9833   -2.8717 H   0  0  0  0  0  0
   -5.3527    5.9662   -2.5258 H   0  0  0  0  0  0
   -4.3996    6.4579   -1.1281 H   0  0  0  0  0  0
   -5.3092    4.9542   -1.0945 H   0  0  0  0  0  0
   -3.1659    6.6529   -6.3209 H   0  0  0  0  0  0
   -1.5736    6.3388   -5.6244 H   0  0  0  0  0  0
   -2.5249    7.7284   -5.0753 H   0  0  0  0  0  0
    1.3665   -0.2645   -0.7715 H   0  0  0  0  0  0
    3.0077   -5.0351    5.3698 H   0  0  0  0  0  0
    4.7528   -1.8054    7.6083 H   0  0  0  0  0  0
    3.2367   -1.1062    7.0725 H   0  0  0  0  0  0
    1.2019   -1.3247    8.4182 H   0  0  0  0  0  0
    0.2397   -1.7521   10.6533 H   0  0  0  0  0  0
    1.5783   -2.9265   12.3665 H   0  0  0  0  0  0
    3.8773   -3.6785   11.8608 H   0  0  0  0  0  0
    4.8483   -3.2557    9.6287 H   0  0  0  0  0  0
    5.0229   -4.3150    3.3259 H   0  0  0  0  0  0
    3.4074   -6.8589    3.6481 H   0  0  0  0  0  0
    4.6521   -6.6070    2.4599 H   0  0  0  0  0  0
    7.0595   -6.3152    3.1601 H   0  0  0  0  0  0
    8.7628   -6.9715    4.8141 H   0  0  0  0  0  0
    8.0858   -7.7818    7.0408 H   0  0  0  0  0  0
    5.6999   -7.9269    7.6403 H   0  0  0  0  0  0
    3.9690   -7.2829    6.0119 H   0  0  0  0  0  0
    1.9653   -3.2149    3.5916 H   0  0  0  0  0  0
    0.8393   -3.7043    0.9796 H   0  0  0  0  0  0
    0.3360   -2.5748    2.2093 H   0  0  0  0  0  0
    2.7850   -1.9931    0.3819 H   0  0  0  0  0  0
  1  2  1  0  0  0
  1 16  1  0  0  0
  1 42  1  0  0  0
  1 43  1  0  0  0
  2  3  1  0  0  0
  2  4  2  0  0  0
  3  5  1  0  0  0
  3 44  1  0  0  0
  5  6  1  0  0  0
  5  7  1  0  0  0
  5 45  1  0  0  0
  6  8  1  0  0  0
  6  9  2  0  0  0
  7 46  1  0  0  0
  7 47  1  0  0  0
  7 48  1  0  0  0
  8 10  1  0  0  0
  8 49  1  0  0  0
 10 11  1  0  0  0
 10 12  1  0  0  0
 10 50  1  0  0  0
 11 13  1  0  0  0
 11 14  2  0  0  0
 12 51  1  0  0  0
 12 52  1  0  0  0
 12 53  1  0  0  0
 13 15  1  0  0  0
 15 54  1  0  0  0
 15 55  1  0  0  0
 15 56  1  0  0  0
 16 40  1  0  0  0
 16 41  1  0  0  0
 16 57  1  0  0  0
 17 18  1  0  0  0
 17 21  1  0  0  0
 18 19  1  0  0  0
 18 20  2  0  0  0
 19 28  1  0  0  0
 19 58  1  0  0  0
 21 22  1  0  0  0
 21 59  1  0  0  0
 21 60  1  0  0  0
 22 27  1  0  0  0
 22 23  2  0  0  0
 23 24  1  0  0  0
 23 61  1  0  0  0
 24 25  2  0  0  0
 24 62  1  0  0  0
 25 26  1  0  0  0
 25 63  1  0  0  0
 26 27  2  0  0  0
 26 64  1  0  0  0
 27 65  1  0  0  0
 28 29  1  0  0  0
 28 30  1  0  0  0
 28 66  1  0  0  0
 29 37  1  0  0  0
 29 38  2  0  0  0
 30 31  1  0  0  0
 30 67  1  0  0  0
 30 68  1  0  0  0
 31 36  1  0  0  0
 31 32  2  0  0  0
 32 33  1  0  0  0
 32 69  1  0  0  0
 33 34  2  0  0  0
 33 70  1  0  0  0
 34 35  1  0  0  0
 34 71  1  0  0  0
 35 36  2  0  0  0
 35 72  1  0  0  0
 36 73  1  0  0  0
 37 39  1  0  0  0
 37 74  1  0  0  0
 39 40  1  0  0  0
 39 75  1  0  0  0
 39 76  1  0  0  0
 40 41  1  0  0  0
 40 77  1  0  0  0
M  END
> <chembl_id>
CHEMBL525792

> <chembl_pref_name>
None

> <i_m_ct_stereo_status>
1

> <s_m_source_file>
sdf/inactives_sanitized.sdf

> <i_m_source_file_index>
109

> <i_lp_mmshare_version>
49012

> <i_f3d_flags>
0

> <s_epik_input>
W0NIM11PQyg9TylbQ0BIXShbQ0gzXSlbTkhdQyg9TylbQ0BIXShbQ0gzXSlbTkhdQyg9TylbQ0gyXVtDQEBIXTFbQ0BASF0oTzEpW0NIMl1bTkhdQyg9TylbQ0BIXShbQ0gyXWMyW2NIXVtjSF1bY0hdW2NIXVtjSF0yKVtOSF1DKD1PKU9bQ0gyXWMzW2NIXVtjSF1bY0hdW2NIXVtjSF0z

> <s_epik_cmdline>
J2VwaWtfcHl0aG9uJywgJy1waHQnLCAnMC41JywgJy1waCcsICc3LjUnLCAnLW50JywgJy1tYScsICcyMDAnLCAnLWltYWUnLCAnPGluZmlsZS5tYWU+JywgJy1vbWFlJywgJzxvdXRmaWxlLm1hZT4n

> <r_lp_tautomer_probability>
1

> <r_epik_Ionization_Penalty>
  0.0000

> <r_epik_Ionization_Penalty_Charging>
  0.0000

> <r_epik_Ionization_Penalty_Neutral>
  0.0000

> <r_epik_State_Penalty>
 -0.0000

> <r_epik_Charging_Adjusted_Penalty>
0

> <i_epik_Tot_Q>
0

> <i_epik_Tot_abs_Q>
0

> <s_epik_Chemistry_Notes>
This compound has an ester and may undergo hydrolysis at high or low pH.

> <s_lp_Force_Field>
OPLS3e

> <r_lp_Energy>
36.756499

> <b_lp_Chiralities_Consistent>
1

> <s_lp_Variant>
sdf/inactives_sanitized.sdf:109-1

$$$$
sdf/inactives_sanitized.sdf:110
                    3D
 Schrodinger Suite 2020-1.
 51 53  0  0  1  0            999 V2000
   -1.5187   -2.0856   -0.1556 C   0  0  1  0  0  0
   -2.2868   -3.6110   -1.3852 N   0  0  0  0  0  0
   -2.1596   -2.1474   -1.5773 C   0  0  1  0  0  0
   -1.6393   -3.6242   -0.1505 C   0  0  0  0  0  0
    0.2671   -0.3952    0.2804 C   0  0  0  0  0  0
   -0.1325   -1.6188   -0.1090 N   0  0  0  0  0  0
    1.7947   -0.1311    0.2073 C   0  0  1  0  0  0
   -3.3941   -1.5040   -1.7440 O   0  0  0  0  0  0
    0.8417    0.0375   -3.1140 C   0  0  0  0  0  0
    2.2869    0.5555   -1.1192 C   0  0  1  0  0  0
    1.2646    0.9082   -2.1200 N   0  0  0  0  0  0
   -3.3817   -0.1441   -1.8211 C   0  0  0  0  0  0
   -1.3328   -4.5249    0.6273 O   0  0  0  0  0  0
   -0.5050    0.4555    0.7278 O   0  0  0  0  0  0
    1.2152   -1.1281   -3.2674 O   0  0  0  0  0  0
   -0.0602    0.6676   -3.8905 O   0  0  0  0  0  0
   -2.3963    0.5955   -1.7892 O   0  0  0  0  0  0
   -0.7000   -0.0104   -4.9648 C   0  0  0  0  0  0
    2.2677    0.8078    1.3470 C   0  0  0  0  0  0
   -1.4457    0.9929   -5.8254 C   0  0  0  0  0  0
    3.0308    1.8304   -0.6759 C   0  0  0  0  0  0
    2.4527    2.1778    0.6941 C   0  0  0  0  0  0
   -4.7846    0.4288   -1.9739 C   0  0  0  0  0  0
   -0.8997    1.4061   -7.0431 C   0  0  0  0  0  0
   -2.6751    1.5003   -5.3980 C   0  0  0  0  0  0
   -3.3577    2.4221   -6.1874 C   0  0  0  0  0  0
   -1.5832    2.3275   -7.8326 C   0  0  0  0  0  0
   -2.8086    2.8314   -7.4010 C   0  0  0  0  0  0
   -2.0969   -1.5803    0.6215 H   0  0  0  0  0  0
   -2.9962   -4.2495   -1.7142 H   0  0  0  0  0  0
   -1.5170   -1.9076   -2.4302 H   0  0  0  0  0  0
    0.5580   -2.2426   -0.5012 H   0  0  0  0  0  0
    2.2915   -1.0944    0.3411 H   0  0  0  0  0  0
    3.0282   -0.0767   -1.6148 H   0  0  0  0  0  0
    0.8572    1.8313   -2.0832 H   0  0  0  0  0  0
    0.0264   -0.5489   -5.5767 H   0  0  0  0  0  0
   -1.4018   -0.7515   -4.5794 H   0  0  0  0  0  0
    1.5967    0.8548    2.2070 H   0  0  0  0  0  0
    3.2230    0.4527    1.7379 H   0  0  0  0  0  0
    4.0894    1.5982   -0.5420 H   0  0  0  0  0  0
    2.9895    2.6500   -1.3956 H   0  0  0  0  0  0
    1.4911    2.6825    0.5850 H   0  0  0  0  0  0
    3.1094    2.8294    1.2717 H   0  0  0  0  0  0
   -5.4418    0.0375   -1.1976 H   0  0  0  0  0  0
   -5.1962    0.1628   -2.9474 H   0  0  0  0  0  0
   -4.7673    1.5161   -1.8941 H   0  0  0  0  0  0
    0.0514    1.0175   -7.3778 H   0  0  0  0  0  0
   -3.0999    1.1853   -4.4570 H   0  0  0  0  0  0
   -4.3076    2.8186   -5.8601 H   0  0  0  0  0  0
   -1.1652    2.6506   -8.7746 H   0  0  0  0  0  0
   -3.3378    3.5469   -8.0133 H   0  0  0  0  0  0
  1  3  1  0  0  0
  1  4  1  0  0  0
  1  6  1  0  0  0
  1 29  1  0  0  0
  2  4  1  0  0  0
  2  3  1  0  0  0
  2 30  1  0  0  0
  3  8  1  0  0  0
  3 31  1  0  0  0
  4 13  2  0  0  0
  5  6  1  0  0  0
  5  7  1  0  0  0
  5 14  2  0  0  0
  6 32  1  0  0  0
  7 10  1  0  0  0
  7 19  1  0  0  0
  7 33  1  0  0  0
  8 12  1  0  0  0
  9 11  1  0  0  0
  9 15  2  0  0  0
  9 16  1  0  0  0
 10 11  1  0  0  0
 10 21  1  0  0  0
 10 34  1  0  0  0
 11 35  1  0  0  0
 12 17  2  0  0  0
 12 23  1  0  0  0
 16 18  1  0  0  0
 18 20  1  0  0  0
 18 36  1  0  0  0
 18 37  1  0  0  0
 19 22  1  0  0  0
 19 38  1  0  0  0
 19 39  1  0  0  0
 20 24  2  0  0  0
 20 25  1  0  0  0
 21 22  1  0  0  0
 21 40  1  0  0  0
 21 41  1  0  0  0
 22 42  1  0  0  0
 22 43  1  0  0  0
 23 44  1  0  0  0
 23 45  1  0  0  0
 23 46  1  0  0  0
 24 27  1  0  0  0
 24 47  1  0  0  0
 25 26  2  0  0  0
 25 48  1  0  0  0
 26 28  1  0  0  0
 26 49  1  0  0  0
 27 28  2  0  0  0
 27 50  1  0  0  0
 28 51  1  0  0  0
M  END
> <chembl_id>
CHEMBL65990

> <chembl_pref_name>
None

> <i_m_ct_stereo_status>
1

> <s_m_source_file>
sdf/inactives_sanitized.sdf

> <i_m_source_file_index>
110

> <i_lp_mmshare_version>
49012

> <i_f3d_flags>
0

> <s_epik_input>
Tz1DMVtOSF1bQ0BASF0oT0MoPU8pW0NIM10pW0NAQEhdMVtOSF1DKD1PKVtDQEhdMltDQEhdKFtDSDJdW0NIMl1bQ0gyXTIpW05IXUMoPU8pT1tDSDJdYzNbY0hdW2NIXVtjSF1bY0hdW2NIXTM=

> <s_epik_cmdline>
J2VwaWtfcHl0aG9uJywgJy1waHQnLCAnMC41JywgJy1waCcsICc3LjUnLCAnLW50JywgJy1tYScsICcyMDAnLCAnLWltYWUnLCAnPGluZmlsZS5tYWU+JywgJy1vbWFlJywgJzxvdXRmaWxlLm1hZT4n

> <r_lp_tautomer_probability>
1

> <r_epik_Ionization_Penalty>
  0.0000

> <r_epik_Ionization_Penalty_Charging>
  0.0000

> <r_epik_Ionization_Penalty_Neutral>
  0.0000

> <r_epik_State_Penalty>
 -0.0000

> <r_epik_Charging_Adjusted_Penalty>
0

> <i_epik_Tot_Q>
0

> <i_epik_Tot_abs_Q>
0

> <s_epik_Chemistry_Notes>
This compound has an ester and may undergo hydrolysis at high or low pH. This compound contains an acetal/aminal-like group ( X-CH(R)-Y where X, Y are N, S, or O) that may be acid/base labile, releasing an aldehyde.

> <s_lp_Force_Field>
OPLS3e

> <r_lp_Energy>
25.999627

> <b_lp_Chiralities_Consistent>
1

> <s_lp_Variant>
sdf/inactives_sanitized.sdf:110-1

$$$$
sdf/inactives_sanitized.sdf:111
                    3D
 Schrodinger Suite 2020-1.
 48 49  0  0  1  0            999 V2000
   -2.1802    0.7489    0.1056 O   0  0  0  0  0  0
   -0.8726    1.0476    0.2173 C   0  0  0  0  0  0
   -0.4258    2.1724    0.4566 O   0  0  0  0  0  0
   -0.1310   -0.1079   -0.0015 N   0  0  0  0  0  0
    1.3425   -0.0844    0.0103 C   0  0  2  0  0  0
    1.7546   -0.7704   -1.2933 C   0  0  0  0  0  0
    2.4243   -1.8057   -1.2855 O   0  0  0  0  0  0
    1.3765   -0.1590   -2.5700 C   0  0  0  0  0  0
    1.5686   -0.6051   -3.7905 N   0  0  0  0  0  0
    1.0011    0.3357   -4.6470 N   0  0  0  0  0  0
    0.5109    1.2743   -3.8759 C   0  0  0  0  0  0
    0.7252    1.0329   -2.5594 O   0  0  0  0  0  0
    1.9423   -0.7531    1.2775 C   0  0  0  0  0  0
    1.5780   -0.0291    2.5895 C   0  0  0  0  0  0
    2.2562   -0.6478    3.8243 C   0  0  0  0  0  0
   -0.2020    2.4701   -4.2672 C   0  0  0  0  0  0
   -0.5160    3.0431   -5.4930 C   0  0  0  0  0  0
   -1.2369    4.2083   -5.2270 C   0  0  0  0  0  0
   -1.3358    4.2966   -3.8494 C   0  0  0  0  0  0
   -0.7088    3.2425   -3.2680 O   0  0  0  0  0  0
    1.8856    0.0682    5.1301 C   0  0  0  0  0  0
   -3.1713    1.7672    0.1968 C   0  0  0  0  0  0
   -4.5627    1.2084   -0.1619 C   0  0  0  0  0  0
   -4.6150    0.6511   -1.5981 C   0  0  0  0  0  0
   -5.6501    2.2746    0.0552 C   0  0  0  0  0  0
   -0.6042   -0.9973   -0.0671 H   0  0  0  0  0  0
    1.7262    0.9378   -0.0376 H   0  0  0  0  0  0
    1.6009   -1.7882    1.3463 H   0  0  0  0  0  0
    3.0301   -0.7857    1.1886 H   0  0  0  0  0  0
    1.8590    1.0226    2.5132 H   0  0  0  0  0  0
    0.4964   -0.0501    2.7313 H   0  0  0  0  0  0
    1.9817   -1.7007    3.9045 H   0  0  0  0  0  0
    3.3396   -0.6230    3.6994 H   0  0  0  0  0  0
   -0.2510    2.6589   -6.4671 H   0  0  0  0  0  0
   -1.6382    4.9021   -5.9510 H   0  0  0  0  0  0
   -1.7935    5.0093   -3.1791 H   0  0  0  0  0  0
    2.3832   -0.3950    5.9824 H   0  0  0  0  0  0
    0.8111    0.0279    5.3124 H   0  0  0  0  0  0
    2.1817    1.1175    5.1045 H   0  0  0  0  0  0
   -3.1777    2.1615    1.2144 H   0  0  0  0  0  0
   -2.9229    2.5938   -0.4721 H   0  0  0  0  0  0
   -4.7775    0.3863    0.5231 H   0  0  0  0  0  0
   -4.3863    1.4234   -2.3336 H   0  0  0  0  0  0
   -5.6030    0.2525   -1.8315 H   0  0  0  0  0  0
   -3.9001   -0.1604   -1.7382 H   0  0  0  0  0  0
   -5.4976    3.1382   -0.5936 H   0  0  0  0  0  0
   -5.6538    2.6314    1.0858 H   0  0  0  0  0  0
   -6.6438    1.8758   -0.1528 H   0  0  0  0  0  0
  1  2  1  0  0  0
  1 22  1  0  0  0
  2  3  2  0  0  0
  2  4  1  0  0  0
  4  5  1  0  0  0
  4 26  1  0  0  0
  5 13  1  0  0  0
  5  6  1  0  0  0
  5 27  1  0  0  0
  6  8  1  0  0  0
  6  7  2  0  0  0
  8  9  2  0  0  0
  8 12  1  0  0  0
  9 10  1  0  0  0
 10 11  2  0  0  0
 11 16  1  0  0  0
 11 12  1  0  0  0
 13 14  1  0  0  0
 13 28  1  0  0  0
 13 29  1  0  0  0
 14 15  1  0  0  0
 14 30  1  0  0  0
 14 31  1  0  0  0
 15 21  1  0  0  0
 15 32  1  0  0  0
 15 33  1  0  0  0
 16 17  2  0  0  0
 16 20  1  0  0  0
 17 18  1  0  0  0
 17 34  1  0  0  0
 18 19  2  0  0  0
 18 35  1  0  0  0
 19 20  1  0  0  0
 19 36  1  0  0  0
 21 37  1  0  0  0
 21 38  1  0  0  0
 21 39  1  0  0  0
 22 23  1  0  0  0
 22 40  1  0  0  0
 22 41  1  0  0  0
 23 24  1  0  0  0
 23 25  1  0  0  0
 23 42  1  0  0  0
 24 43  1  0  0  0
 24 44  1  0  0  0
 24 45  1  0  0  0
 25 46  1  0  0  0
 25 47  1  0  0  0
 25 48  1  0  0  0
M  END
> <chembl_id>
CHEMBL272374

> <chembl_pref_name>
None

> <i_m_ct_stereo_status>
1

> <s_m_source_file>
sdf/inactives_sanitized.sdf

> <i_m_source_file_index>
111

> <i_lp_mmshare_version>
49012

> <i_f3d_flags>
0

> <s_epik_input>
W0NIM11bQ0hdKFtDSDNdKVtDSDJdT0MoPU8pW05IXVtDQEBIXShbQ0gyXVtDSDJdW0NIMl1bQ0gzXSlDKD1PKWMxbm5jKG8xKS1jMltjSF1bY0hdW2NIXW8y

> <s_epik_cmdline>
J2VwaWtfcHl0aG9uJywgJy1waHQnLCAnMC41JywgJy1waCcsICc3LjUnLCAnLW50JywgJy1tYScsICcyMDAnLCAnLWltYWUnLCAnPGluZmlsZS5tYWU+JywgJy1vbWFlJywgJzxvdXRmaWxlLm1hZT4n

> <r_lp_tautomer_probability>
1

> <r_epik_Ionization_Penalty>
  0.0000

> <r_epik_Ionization_Penalty_Charging>
  0.0000

> <r_epik_Ionization_Penalty_Neutral>
  0.0000

> <r_epik_State_Penalty>
 -0.0000

> <r_epik_Charging_Adjusted_Penalty>
0

> <i_epik_Tot_Q>
0

> <i_epik_Tot_abs_Q>
0

> <s_epik_Chemistry_Notes>
This compound has an ester and may undergo hydrolysis at high or low pH.

> <s_lp_Force_Field>
OPLS3e

> <r_lp_Energy>
22.587085

> <b_lp_Chiralities_Consistent>
1

> <s_lp_Variant>
sdf/inactives_sanitized.sdf:111-1

$$$$
sdf/inactives_sanitized.sdf:112
                    3D
 Schrodinger Suite 2020-1.
 52 53  0  0  1  0            999 V2000
    2.5328    0.9896   -1.7295 C   0  0  0  0  0  0
    2.0702    0.1402   -2.4937 O   0  0  0  0  0  0
    3.2730    2.0658   -2.1088 O   0  0  0  0  0  0
    3.6184    2.4060   -3.4650 C   0  0  0  0  0  0
    2.3545    2.7009   -4.3105 C   0  0  0  0  0  0
    4.4810    1.3014   -4.1248 C   0  0  0  0  0  0
    4.4560    3.6947   -3.3338 C   0  0  0  0  0  0
    0.0796   -2.6228    0.1591 N   0  0  0  0  0  0
   -0.9892   -3.5083    0.0673 N   0  0  0  0  0  0
   -2.0660   -2.7795   -0.1163 C   0  0  0  0  0  0
   -1.7741   -1.4515   -0.1545 O   0  0  0  0  0  0
   -0.4281   -1.4210    0.0253 C   0  0  0  0  0  0
    0.2411   -0.1237    0.0555 C   0  0  0  0  0  0
   -0.3944    0.9095   -0.1705 O   0  0  0  0  0  0
    1.7381   -0.0831    0.3995 C   0  0  1  0  0  0
    2.4094    1.0072   -0.3413 N   0  0  0  0  0  0
    1.9336    0.1419    1.9240 C   0  0  0  0  0  0
    1.4586   -1.0091    2.8372 C   0  0  0  0  0  0
    1.8162   -0.7846    4.3124 C   0  0  0  0  0  0
   -3.4955   -3.2192   -0.2721 C   0  0  0  0  0  0
   -4.4702   -2.2261   -0.4515 C   0  0  0  0  0  0
   -5.8141   -2.5581   -0.5988 C   0  0  0  0  0  0
   -6.2054   -3.8915   -0.5700 C   0  0  0  0  0  0
   -5.2525   -4.8913   -0.3939 C   0  0  0  0  0  0
   -3.8895   -4.5744   -0.2429 C   0  0  0  0  0  0
   -2.9124   -5.5392   -0.0656 O   0  0  0  0  0  0
   -3.2705   -6.9167   -0.0349 C   0  0  0  0  0  0
    2.6170    3.0902   -5.2948 H   0  0  0  0  0  0
    1.7178    3.4414   -3.8247 H   0  0  0  0  0  0
    1.7475    1.8096   -4.4696 H   0  0  0  0  0  0
    3.9192    0.3822   -4.2896 H   0  0  0  0  0  0
    5.3405    1.0465   -3.5038 H   0  0  0  0  0  0
    4.8621    1.6219   -5.0952 H   0  0  0  0  0  0
    4.7788    4.0654   -4.3077 H   0  0  0  0  0  0
    5.3514    3.5300   -2.7324 H   0  0  0  0  0  0
    3.8889    4.4926   -2.8516 H   0  0  0  0  0  0
    2.2483   -1.0147    0.1444 H   0  0  0  0  0  0
    3.0803    1.5615    0.1703 H   0  0  0  0  0  0
    2.9978    0.3011    2.1099 H   0  0  0  0  0  0
    1.4512    1.0734    2.2283 H   0  0  0  0  0  0
    0.3776   -1.1282    2.7597 H   0  0  0  0  0  0
    1.8999   -1.9496    2.5041 H   0  0  0  0  0  0
    1.4603   -1.6105    4.9289 H   0  0  0  0  0  0
    1.3637    0.1314    4.6942 H   0  0  0  0  0  0
    2.8952   -0.7094    4.4520 H   0  0  0  0  0  0
   -4.1965   -1.1812   -0.4782 H   0  0  0  0  0  0
   -6.5516   -1.7808   -0.7356 H   0  0  0  0  0  0
   -7.2475   -4.1517   -0.6839 H   0  0  0  0  0  0
   -5.5960   -5.9141   -0.3771 H   0  0  0  0  0  0
   -2.3728   -7.5178    0.1094 H   0  0  0  0  0  0
   -3.7298   -7.2318   -0.9729 H   0  0  0  0  0  0
   -3.9493   -7.1361    0.7906 H   0  0  0  0  0  0
  1 16  1  0  0  0
  1  2  2  0  0  0
  1  3  1  0  0  0
  3  4  1  0  0  0
  4  5  1  0  0  0
  4  6  1  0  0  0
  4  7  1  0  0  0
  5 28  1  0  0  0
  5 29  1  0  0  0
  5 30  1  0  0  0
  6 31  1  0  0  0
  6 32  1  0  0  0
  6 33  1  0  0  0
  7 34  1  0  0  0
  7 35  1  0  0  0
  7 36  1  0  0  0
  8 12  2  0  0  0
  8  9  1  0  0  0
  9 10  2  0  0  0
 10 20  1  0  0  0
 10 11  1  0  0  0
 11 12  1  0  0  0
 12 13  1  0  0  0
 13 14  2  0  0  0
 13 15  1  0  0  0
 15 16  1  0  0  0
 15 17  1  0  0  0
 15 37  1  0  0  0
 16 38  1  0  0  0
 17 18  1  0  0  0
 17 39  1  0  0  0
 17 40  1  0  0  0
 18 19  1  0  0  0
 18 41  1  0  0  0
 18 42  1  0  0  0
 19 43  1  0  0  0
 19 44  1  0  0  0
 19 45  1  0  0  0
 20 21  2  0  0  0
 20 25  1  0  0  0
 21 22  1  0  0  0
 21 46  1  0  0  0
 22 23  2  0  0  0
 22 47  1  0  0  0
 23 24  1  0  0  0
 23 48  1  0  0  0
 24 25  2  0  0  0
 24 49  1  0  0  0
 25 26  1  0  0  0
 26 27  1  0  0  0
 27 50  1  0  0  0
 27 51  1  0  0  0
 27 52  1  0  0  0
M  END
> <chembl_id>
CHEMBL378780

> <chembl_pref_name>
None

> <i_m_ct_stereo_status>
1

> <s_m_source_file>
sdf/inactives_sanitized.sdf

> <i_m_source_file_index>
112

> <i_lp_mmshare_version>
49012

> <i_f3d_flags>
0

> <s_epik_input>
W0NIM11DKFtDSDNdKShbQ0gzXSlPQyg9TylbTkhdW0NAQEhdKFtDSDJdW0NIMl1bQ0gzXSlDKD1PKWMobzEpbm5jMS1jMltjSF1bY0hdW2NIXVtjSF1jMk9bQ0gzXQ==

> <s_epik_cmdline>
J2VwaWtfcHl0aG9uJywgJy1waHQnLCAnMC41JywgJy1waCcsICc3LjUnLCAnLW50JywgJy1tYScsICcyMDAnLCAnLWltYWUnLCAnPGluZmlsZS5tYWU+JywgJy1vbWFlJywgJzxvdXRmaWxlLm1hZT4n

> <r_lp_tautomer_probability>
1

> <r_epik_Ionization_Penalty>
  0.0000

> <r_epik_Ionization_Penalty_Charging>
  0.0000

> <r_epik_Ionization_Penalty_Neutral>
  0.0000

> <r_epik_State_Penalty>
 -0.0000

> <r_epik_Charging_Adjusted_Penalty>
0

> <i_epik_Tot_Q>
0

> <i_epik_Tot_abs_Q>
0

> <s_epik_Chemistry_Notes>
This compound has an ester and may undergo hydrolysis at high or low pH.

> <s_lp_Force_Field>
OPLS3e

> <r_lp_Energy>
31.335319

> <b_lp_Chiralities_Consistent>
1

> <s_lp_Variant>
sdf/inactives_sanitized.sdf:112-1

$$$$
sdf/inactives_sanitized.sdf:113
                    3D
 Schrodinger Suite 2020-1.
 51 53  0  0  1  0            999 V2000
   -2.1435    0.0078    1.7104 C   0  0  0  0  0  0
   -0.7360   -0.5679    1.6831 C   0  0  0  0  0  0
   -0.1952   -0.2901    0.2724 C   0  0  1  0  0  0
   -0.8909    0.9838   -0.0695 N   0  0  2  0  0  0
   -2.2606    0.9383    0.5012 C   0  0  0  0  0  0
    1.3409   -0.1604    0.2754 C   0  0  0  0  0  0
    2.0266   -1.1949   -0.2439 N   0  0  0  0  0  0
    1.8868    0.7968    0.8277 O   0  0  0  0  0  0
   -0.6731    1.7462   -1.6583 S   0  0  0  0  0  0
   -1.3245    3.4018   -1.4577 C   0  0  0  0  0  0
    0.7644    1.8807   -1.9204 O   0  0  0  0  0  0
   -1.5366    1.0341   -2.6077 O   0  0  0  0  0  0
    3.4811   -1.3742   -0.1737 C   0  0  2  0  0  0
    3.8976   -1.6350   -1.6057 C   0  0  0  0  0  0
    3.8563   -2.5166    0.8083 C   0  0  0  0  0  0
    3.4180   -2.2869    2.2462 C   0  0  0  0  0  0
    2.1657   -2.7591    2.6956 C   0  0  0  0  0  0
    1.7221   -2.4462    3.9735 C   0  0  0  0  0  0
    2.4956   -1.6473    4.8061 C   0  0  0  0  0  0
    3.7133   -1.1447    4.3648 C   0  0  0  0  0  0
    4.1738   -1.4453    3.0896 C   0  0  0  0  0  0
    4.7055   -2.5040   -1.9329 O   0  0  0  0  0  0
   -0.5175    4.3999   -0.9091 C   0  0  0  0  0  0
   -1.0252    5.6844   -0.7289 C   0  0  0  0  0  0
   -2.3410    5.9732   -1.0892 C   0  0  0  0  0  0
   -2.6462    3.6910   -1.8103 C   0  0  0  0  0  0
   -3.1719    4.9806   -1.6328 C   0  0  0  0  0  0
   -4.5737    5.2866   -2.0080 N   0  3  0  0  0  0
   -5.2705    4.3845   -2.4644 O   0  0  0  0  0  0
   -4.9882    6.4313   -1.8483 O   0  5  0  0  0  0
   -2.3136    0.5544    2.6390 H   0  0  0  0  0  0
   -2.8942   -0.7821    1.6598 H   0  0  0  0  0  0
   -0.7546   -1.6390    1.8895 H   0  0  0  0  0  0
   -0.1213   -0.1160    2.4657 H   0  0  0  0  0  0
   -0.4954   -1.0879   -0.4108 H   0  0  0  0  0  0
   -2.6810    1.9316    0.6596 H   0  0  0  0  0  0
   -2.9299    0.5034   -0.2428 H   0  0  0  0  0  0
    1.5112   -1.9814   -0.6117 H   0  0  0  0  0  0
    3.9711   -0.4566    0.1592 H   0  0  0  0  0  0
    3.4478   -0.9744   -2.3482 H   0  0  0  0  0  0
    3.4209   -3.4610    0.4755 H   0  0  0  0  0  0
    4.9377   -2.6641    0.8086 H   0  0  0  0  0  0
    1.5455   -3.3595    2.0461 H   0  0  0  0  0  0
    0.7673   -2.8160    4.3169 H   0  0  0  0  0  0
    2.1420   -1.4046    5.7973 H   0  0  0  0  0  0
    4.2992   -0.5088    5.0119 H   0  0  0  0  0  0
    5.1097   -1.0302    2.7451 H   0  0  0  0  0  0
    0.5006    4.1830   -0.6192 H   0  0  0  0  0  0
   -0.3996    6.4569   -0.3067 H   0  0  0  0  0  0
   -2.7098    6.9772   -0.9376 H   0  0  0  0  0  0
   -3.2661    2.9072   -2.2208 H   0  0  0  0  0  0
  1  5  1  0  0  0
  1  2  1  0  0  0
  1 31  1  0  0  0
  1 32  1  0  0  0
  2  3  1  0  0  0
  2 33  1  0  0  0
  2 34  1  0  0  0
  3  4  1  0  0  0
  3  6  1  0  0  0
  3 35  1  0  0  0
  4  9  1  0  0  0
  4  5  1  0  0  0
  5 36  1  0  0  0
  5 37  1  0  0  0
  6  8  2  0  0  0
  6  7  1  0  0  0
  7 13  1  0  0  0
  7 38  1  0  0  0
  9 10  1  0  0  0
  9 11  2  0  0  0
  9 12  2  0  0  0
 10 23  2  0  0  0
 10 26  1  0  0  0
 13 15  1  0  0  0
 13 14  1  0  0  0
 13 39  1  0  0  0
 14 22  2  0  0  0
 14 40  1  0  0  0
 15 16  1  0  0  0
 15 41  1  0  0  0
 15 42  1  0  0  0
 16 17  2  0  0  0
 16 21  1  0  0  0
 17 18  1  0  0  0
 17 43  1  0  0  0
 18 19  2  0  0  0
 18 44  1  0  0  0
 19 20  1  0  0  0
 19 45  1  0  0  0
 20 21  2  0  0  0
 20 46  1  0  0  0
 21 47  1  0  0  0
 23 24  1  0  0  0
 23 48  1  0  0  0
 24 25  2  0  0  0
 24 49  1  0  0  0
 25 27  1  0  0  0
 25 50  1  0  0  0
 26 27  2  0  0  0
 26 51  1  0  0  0
 27 28  1  0  0  0
 28 29  2  0  0  0
 28 30  1  0  0  0
M  CHG  2  28   1  30  -1
M  END
> <chembl_id>
CHEMBL386555

> <chembl_pref_name>
None

> <i_m_ct_stereo_status>
1

> <s_m_source_file>
sdf/inactives_sanitized.sdf

> <i_m_source_file_index>
113

> <i_lp_mmshare_version>
49012

> <i_f3d_flags>
0

> <s_epik_input>
Tz1bTitdKFtPLV0pYyhbY0hdMSlbY0hdW2NIXVtjSF1jMVMoPU8pKD1PKU4yW0NIMl1bQ0gyXVtDSDJdW0NAQEhdMkMoPU8pW05IXVtDQEhdKFtDSF09TylbQ0gyXWMzW2NIXVtjSF1bY0hdW2NIXVtjSF0z

> <s_epik_cmdline>
J2VwaWtfcHl0aG9uJywgJy1waHQnLCAnMC41JywgJy1waCcsICc3LjUnLCAnLW50JywgJy1tYScsICcyMDAnLCAnLWltYWUnLCAnPGluZmlsZS5tYWU+JywgJy1vbWFlJywgJzxvdXRmaWxlLm1hZT4n

> <r_lp_tautomer_probability>
1

> <r_epik_Ionization_Penalty>
  0.0031

> <r_epik_Ionization_Penalty_Charging>
  0.0000

> <r_epik_Ionization_Penalty_Neutral>
  0.0031

> <r_epik_State_Penalty>
 -0.0000

> <r_epik_Charging_Adjusted_Penalty>
0

> <i_epik_Tot_Q>
0

> <i_epik_Tot_abs_Q>
2

> <s_lp_Force_Field>
OPLS3e

> <r_lp_Energy>
37.412195

> <b_lp_Chiralities_Consistent>
1

> <s_lp_Variant>
sdf/inactives_sanitized.sdf:113-1

$$$$
sdf/inactives_sanitized.sdf:114
                    3D
 Schrodinger Suite 2020-1.
 79 82  0  0  1  0            999 V2000
   -1.0614    0.9693    0.7063 C   0  0  0  0  0  0
   -3.5951    1.1164   -1.3647 C   0  0  0  0  0  0
    0.2990    1.6008   -7.6907 N   0  0  0  0  0  0
   -3.3422    1.6118   -0.0814 N   0  0  0  0  0  0
   -0.4313   -0.1959    0.4718 N   0  0  0  0  0  0
   -2.5815    0.8775    0.9469 C   0  0  2  0  0  0
    0.3786    1.3779   -6.3165 C   0  0  0  0  0  0
   -0.5059    2.0693    0.7182 O   0  0  0  0  0  0
   -4.2570    1.7168   -2.2117 O   0  0  0  0  0  0
   -3.0049   -0.0865   -1.5738 O   0  0  0  0  0  0
    0.5212    0.8424   -2.1374 N   0  0  0  0  0  0
    0.9943    0.2363   -5.7817 C   0  0  0  0  0  0
   -0.1756    2.3132   -5.4332 C   0  0  0  0  0  0
    0.5016    0.9829   -3.5339 C   0  0  0  0  0  0
    0.9707   -0.3372    0.0614 C   0  0  2  0  0  0
   -3.0609   -0.7358   -2.8389 C   0  0  0  0  0  0
    1.1280   -0.3136   -1.4832 C   0  0  0  0  0  0
    1.0576    0.0396   -4.4050 C   0  0  0  0  0  0
   -0.1137    2.1190   -4.0567 C   0  0  0  0  0  0
    3.0462   -1.8772    0.4036 C   0  0  0  0  0  0
    1.5516   -1.6254    0.6889 C   0  0  0  0  0  0
   -2.0898   -1.9097   -2.8878 C   0  0  0  0  0  0
    3.5678   -3.1250    1.1010 C   0  0  0  0  0  0
   -1.0360    1.7960   -8.2905 C   0  0  0  0  0  0
    1.1764    0.8774   -8.6323 C   0  0  0  0  0  0
   -2.9831    1.4043    2.3339 C   0  0  0  0  0  0
    4.1966   -3.0206    2.3449 C   0  0  0  0  0  0
   -1.4816   -2.2320   -4.1033 C   0  0  0  0  0  0
   -1.8044   -2.6660   -1.7442 C   0  0  0  0  0  0
    3.4083   -4.3762    0.4987 C   0  0  0  0  0  0
   -0.9915    2.5170   -9.6543 C   0  0  0  0  0  0
    1.2925    1.5611  -10.0110 C   0  0  0  0  0  0
   -0.8994   -3.7218   -1.8143 C   0  0  0  0  0  0
   -0.5770   -3.2882   -4.1735 C   0  0  0  0  0  0
    3.8784   -5.5202    1.1383 C   0  0  0  0  0  0
    4.6670   -4.1651    2.9838 C   0  0  0  0  0  0
    4.5058   -5.4093    2.3775 C   0  0  0  0  0  0
   -0.2872   -4.0261   -3.0280 C   0  0  0  0  0  0
   -0.0781    1.7992  -10.6524 C   0  0  0  0  0  0
   -3.6917    2.5274    0.1609 H   0  0  0  0  0  0
   -0.9686   -1.0497    0.5127 H   0  0  0  0  0  0
   -2.8891   -0.1714    0.9312 H   0  0  0  0  0  0
    0.4346    1.6863   -1.5884 H   0  0  0  0  0  0
    1.4254   -0.5171   -6.4242 H   0  0  0  0  0  0
   -0.6512    3.2079   -5.8081 H   0  0  0  0  0  0
    1.5432    0.4976    0.4734 H   0  0  0  0  0  0
   -4.0729   -1.0941   -3.0313 H   0  0  0  0  0  0
   -2.8005   -0.0249   -3.6259 H   0  0  0  0  0  0
    0.7114   -1.2221   -1.9186 H   0  0  0  0  0  0
    2.1847   -0.3215   -1.7517 H   0  0  0  0  0  0
    1.5381   -0.8529   -4.0329 H   0  0  0  0  0  0
   -0.5514    2.8571   -3.3995 H   0  0  0  0  0  0
    3.2231   -1.9863   -0.6671 H   0  0  0  0  0  0
    3.6403   -1.0145    0.7105 H   0  0  0  0  0  0
    0.9695   -2.4865    0.3548 H   0  0  0  0  0  0
    1.4130   -1.5782    1.7709 H   0  0  0  0  0  0
   -1.5237    0.8243   -8.3847 H   0  0  0  0  0  0
   -1.6628    2.3912   -7.6265 H   0  0  0  0  0  0
    2.1792    0.8298   -8.2047 H   0  0  0  0  0  0
    0.8244   -0.1500   -8.7386 H   0  0  0  0  0  0
   -2.4456    0.8806    3.1252 H   0  0  0  0  0  0
   -4.0494    1.2623    2.5131 H   0  0  0  0  0  0
   -2.7689    2.4692    2.4350 H   0  0  0  0  0  0
    4.3192   -2.0567    2.8175 H   0  0  0  0  0  0
   -1.6987   -1.6576   -4.9925 H   0  0  0  0  0  0
   -2.2741   -2.4354   -0.7991 H   0  0  0  0  0  0
    2.9191   -4.4629   -0.4608 H   0  0  0  0  0  0
   -2.0004    2.5720  -10.0645 H   0  0  0  0  0  0
   -0.6832    3.5541   -9.5137 H   0  0  0  0  0  0
    1.8529    2.4926   -9.9163 H   0  0  0  0  0  0
    1.8927    0.9338  -10.6711 H   0  0  0  0  0  0
   -0.6718   -4.3007   -0.9313 H   0  0  0  0  0  0
   -0.1005   -3.5319   -5.1116 H   0  0  0  0  0  0
    3.7564   -6.4889    0.6764 H   0  0  0  0  0  0
    5.1536   -4.0886    3.9450 H   0  0  0  0  0  0
    4.8704   -6.2971    2.8732 H   0  0  0  0  0  0
    0.4163   -4.8441   -3.0823 H   0  0  0  0  0  0
    0.0235    2.3832  -11.5678 H   0  0  0  0  0  0
   -0.5227    0.8445  -10.9380 H   0  0  0  0  0  0
  1  5  1  0  0  0
  1  6  1  0  0  0
  1  8  2  0  0  0
  2  4  1  0  0  0
  2  9  2  0  0  0
  2 10  1  0  0  0
  3  7  1  0  0  0
  3 24  1  0  0  0
  3 25  1  0  0  0
  4  6  1  0  0  0
  4 40  1  0  0  0
  5 15  1  0  0  0
  5 41  1  0  0  0
  6 26  1  0  0  0
  6 42  1  0  0  0
  7 13  2  0  0  0
  7 12  1  0  0  0
 10 16  1  0  0  0
 11 17  1  0  0  0
 11 14  1  0  0  0
 11 43  1  0  0  0
 12 18  2  0  0  0
 12 44  1  0  0  0
 13 19  1  0  0  0
 13 45  1  0  0  0
 14 18  1  0  0  0
 14 19  2  0  0  0
 15 17  1  0  0  0
 15 21  1  0  0  0
 15 46  1  0  0  0
 16 22  1  0  0  0
 16 47  1  0  0  0
 16 48  1  0  0  0
 17 49  1  0  0  0
 17 50  1  0  0  0
 18 51  1  0  0  0
 19 52  1  0  0  0
 20 21  1  0  0  0
 20 23  1  0  0  0
 20 53  1  0  0  0
 20 54  1  0  0  0
 21 55  1  0  0  0
 21 56  1  0  0  0
 22 28  2  0  0  0
 22 29  1  0  0  0
 23 27  2  0  0  0
 23 30  1  0  0  0
 24 31  1  0  0  0
 24 57  1  0  0  0
 24 58  1  0  0  0
 25 32  1  0  0  0
 25 59  1  0  0  0
 25 60  1  0  0  0
 26 61  1  0  0  0
 26 62  1  0  0  0
 26 63  1  0  0  0
 27 36  1  0  0  0
 27 64  1  0  0  0
 28 34  1  0  0  0
 28 65  1  0  0  0
 29 33  2  0  0  0
 29 66  1  0  0  0
 30 35  2  0  0  0
 30 67  1  0  0  0
 31 39  1  0  0  0
 31 68  1  0  0  0
 31 69  1  0  0  0
 32 39  1  0  0  0
 32 70  1  0  0  0
 32 71  1  0  0  0
 33 38  1  0  0  0
 33 72  1  0  0  0
 34 38  2  0  0  0
 34 73  1  0  0  0
 35 37  1  0  0  0
 35 74  1  0  0  0
 36 37  2  0  0  0
 36 75  1  0  0  0
 37 76  1  0  0  0
 38 77  1  0  0  0
 39 78  1  0  0  0
 39 79  1  0  0  0
M  END
> <chembl_id>
CHEMBL353633

> <chembl_pref_name>
None

> <i_m_ct_stereo_status>
1

> <s_m_source_file>
sdf/inactives_sanitized.sdf

> <i_m_source_file_index>
114

> <i_lp_mmshare_version>
49012

> <i_f3d_flags>
0

> <s_epik_input>
W2NIXTFbY0hdW2NIXVtjSF1bY0hdYzFbQ0gyXU9DKD1PKVtOSF1bQ0BIXShbQ0gzXSlDKD1PKVtOSF1bQ0BASF0oW0NIMl1bQ0gyXWMyW2NIXVtjSF1bY0hdW2NIXVtjSF0yKVtDSDJdW05IXWMoW2NIXVtjSF0zKVtjSF1bY0hdYzNONFtDSDJdW0NIMl1bQ0gyXVtDSDJdW0NIMl00

> <s_epik_cmdline>
J2VwaWtfcHl0aG9uJywgJy1waHQnLCAnMC41JywgJy1waCcsICc3LjUnLCAnLW50JywgJy1tYScsICcyMDAnLCAnLWltYWUnLCAnPGluZmlsZS5tYWU+JywgJy1vbWFlJywgJzxvdXRmaWxlLm1hZT4n

> <r_epik_Ionization_Penalty>
  0.0542

> <r_epik_Ionization_Penalty_Charging>
  0.0000

> <r_epik_Ionization_Penalty_Neutral>
  0.0542

> <r_epik_State_Penalty>
  0.0370

> <r_epik_Charging_Adjusted_Penalty>
0.0370497097551937

> <i_epik_Tot_Q>
0

> <i_epik_Tot_abs_Q>
0

> <s_epik_Chemistry_Notes>
This compound has an ester and may undergo hydrolysis at high or low pH.

> <s_lp_Force_Field>
OPLS3e

> <r_lp_Energy>
46.159246

> <b_lp_Chiralities_Consistent>
1

> <s_lp_Variant>
sdf/inactives_sanitized.sdf:114-1

$$$$
sdf/inactives_sanitized.sdf:115
                    3D
 Schrodinger Suite 2020-1.
 92 95  0  0  1  0            999 V2000
    4.1953    2.1792   -1.3441 C   0  0  0  0  0  0
   -1.0455    1.0986   -0.1014 C   0  0  0  0  0  0
   -0.5502   -0.3532   -0.0911 C   0  0  2  0  0  0
    1.7949    0.0687   -0.9778 C   0  0  0  0  0  0
    4.1219    0.8393   -1.4269 N   0  0  0  0  0  0
    0.9265   -0.3622   -0.0407 N   0  0  0  0  0  0
   -0.7556    1.9279    1.2206 C   0  0  0  0  0  0
    3.2826   -0.0202   -0.5891 C   0  0  2  0  0  0
    5.1094    2.8819   -2.3748 C   0  0  0  0  0  0
    2.9272    4.7471    2.6453 N   0  0  0  0  0  0
    3.5668    2.8316   -0.5095 O   0  0  0  0  0  0
   -1.6553    1.6115   -1.0441 O   0  0  0  0  0  0
   -1.0879   -1.2342   -1.2568 C   0  0  0  0  0  0
    1.4666    0.4959   -2.0858 O   0  0  0  0  0  0
   -0.3091    1.3862    2.2337 O   0  0  0  0  0  0
    3.7895   -1.4773   -0.7056 C   0  0  0  0  0  0
    6.0521    3.8863   -1.6919 C   0  0  0  0  0  0
    4.3317    3.4329   -3.5872 C   0  0  0  0  0  0
   -1.0476    3.2357    1.0869 N   0  0  0  0  0  0
    5.6728    5.4360    2.2692 O   0  0  0  0  0  0
   -2.5675   -1.5807   -1.1849 C   0  0  0  0  0  0
    1.6967    4.0397    2.2795 C   0  0  0  0  0  0
    0.4703    4.9680    2.1199 C   0  0  0  0  0  0
    4.0043    3.7885    2.9272 C   0  0  0  0  0  0
    3.3416    5.7558    1.6590 C   0  0  0  0  0  0
    5.2359   -1.7035   -0.2049 C   0  0  0  0  0  0
   -0.8940    4.2475    2.1350 C   0  0  0  0  0  0
    4.6682    6.4253    2.0744 C   0  0  0  0  0  0
    5.3236    4.5051    3.2875 C   0  0  0  0  0  0
    3.1252    4.1369   -3.4433 C   0  0  0  0  0  0
    4.8457    3.2183   -4.8720 C   0  0  0  0  0  0
    5.6994    5.2331   -1.5312 C   0  0  0  0  0  0
    7.2869    3.4380   -1.2055 C   0  0  0  0  0  0
   -3.0218   -2.5477   -0.2627 C   0  0  0  0  0  0
   -3.5158   -0.8468   -1.9296 C   0  0  0  0  0  0
    5.7088   -3.1406   -0.5128 C   0  0  0  0  0  0
    5.4083   -1.3378    1.2852 C   0  0  0  0  0  0
    4.1687    3.6925   -5.9923 C   0  0  0  0  0  0
    6.5787    6.1198   -0.9162 C   0  0  0  0  0  0
    8.1610    4.3225   -0.5803 C   0  0  0  0  0  0
    2.4476    4.6105   -4.5631 C   0  0  0  0  0  0
   -4.8704   -1.1191   -1.7900 C   0  0  0  0  0  0
   -4.3807   -2.8046   -0.1374 C   0  0  0  0  0  0
    2.9716    4.3852   -5.8330 C   0  0  0  0  0  0
    7.8043    5.6609   -0.4413 C   0  0  0  0  0  0
   -5.3001   -2.0968   -0.9014 C   0  0  0  0  0  0
   -0.8815   -0.8291    0.8335 H   0  0  0  0  0  0
    4.6552    0.3640   -2.1402 H   0  0  0  0  0  0
    1.3101   -0.6952    0.8321 H   0  0  0  0  0  0
    3.3711    0.3163    0.4454 H   0  0  0  0  0  0
    5.7631    2.1038   -2.7777 H   0  0  0  0  0  0
   -0.8769   -0.7791   -2.2261 H   0  0  0  0  0  0
   -0.5483   -2.1827   -1.2578 H   0  0  0  0  0  0
    3.1253   -2.1427   -0.1515 H   0  0  0  0  0  0
    3.7181   -1.7893   -1.7493 H   0  0  0  0  0  0
   -1.4156    3.5567    0.2028 H   0  0  0  0  0  0
    1.8570    3.4928    1.3494 H   0  0  0  0  0  0
    1.4699    3.2820    3.0311 H   0  0  0  0  0  0
    0.4943    5.7733    2.8558 H   0  0  0  0  0  0
    0.5413    5.4606    1.1488 H   0  0  0  0  0  0
    3.7019    3.1346    3.7464 H   0  0  0  0  0  0
    4.1587    3.1374    2.0654 H   0  0  0  0  0  0
    3.4450    5.2915    0.6769 H   0  0  0  0  0  0
    2.5687    6.5170    1.5538 H   0  0  0  0  0  0
    5.8921   -1.0435   -0.7734 H   0  0  0  0  0  0
   -1.0394    3.7786    3.1108 H   0  0  0  0  0  0
   -1.6971    4.9770    2.0250 H   0  0  0  0  0  0
    4.5384    7.0211    2.9800 H   0  0  0  0  0  0
    4.9974    7.1148    1.2980 H   0  0  0  0  0  0
    5.2447    5.0079    4.2533 H   0  0  0  0  0  0
    6.1282    3.7757    3.3822 H   0  0  0  0  0  0
    2.7064    4.3235   -2.4656 H   0  0  0  0  0  0
    5.7743    2.6826   -5.0075 H   0  0  0  0  0  0
    4.7483    5.6040   -1.8807 H   0  0  0  0  0  0
    7.5718    2.4011   -1.3102 H   0  0  0  0  0  0
   -2.3149   -3.0907    0.3476 H   0  0  0  0  0  0
   -3.1931   -0.0745   -2.6125 H   0  0  0  0  0  0
    5.9035   -3.7231    0.3877 H   0  0  0  0  0  0
    6.6308   -3.1272   -1.0948 H   0  0  0  0  0  0
    4.9732   -3.6983   -1.0933 H   0  0  0  0  0  0
    4.4521   -1.2889    1.8068 H   0  0  0  0  0  0
    5.8848   -0.3622    1.3865 H   0  0  0  0  0  0
    6.0307   -2.0512    1.8251 H   0  0  0  0  0  0
    4.5703    3.5229   -6.9805 H   0  0  0  0  0  0
    6.3074    7.1586   -0.8005 H   0  0  0  0  0  0
    9.1117    3.9725   -0.2057 H   0  0  0  0  0  0
    1.5191    5.1502   -4.4469 H   0  0  0  0  0  0
   -5.5931   -0.5634   -2.3692 H   0  0  0  0  0  0
   -4.7245   -3.5522    0.5623 H   0  0  0  0  0  0
    2.4454    4.7519   -6.7020 H   0  0  0  0  0  0
    8.4822    6.3485    0.0426 H   0  0  0  0  0  0
   -6.3557   -2.3005   -0.7962 H   0  0  0  0  0  0
  1  5  1  0  0  0
  1  9  1  0  0  0
  1 11  2  0  0  0
  2  3  1  0  0  0
  2  7  1  0  0  0
  2 12  2  0  0  0
  3  6  1  0  0  0
  3 13  1  0  0  0
  3 47  1  0  0  0
  4  8  1  0  0  0
  4  6  1  0  0  0
  4 14  2  0  0  0
  5  8  1  0  0  0
  5 48  1  0  0  0
  6 49  1  0  0  0
  7 15  2  0  0  0
  7 19  1  0  0  0
  8 16  1  0  0  0
  8 50  1  0  0  0
  9 17  1  0  0  0
  9 18  1  0  0  0
  9 51  1  0  0  0
 10 22  1  0  0  0
 10 24  1  0  0  0
 10 25  1  0  0  0
 13 21  1  0  0  0
 13 52  1  0  0  0
 13 53  1  0  0  0
 16 26  1  0  0  0
 16 54  1  0  0  0
 16 55  1  0  0  0
 17 32  2  0  0  0
 17 33  1  0  0  0
 18 30  2  0  0  0
 18 31  1  0  0  0
 19 27  1  0  0  0
 19 56  1  0  0  0
 20 28  1  0  0  0
 20 29  1  0  0  0
 21 34  2  0  0  0
 21 35  1  0  0  0
 22 23  1  0  0  0
 22 57  1  0  0  0
 22 58  1  0  0  0
 23 27  1  0  0  0
 23 59  1  0  0  0
 23 60  1  0  0  0
 24 29  1  0  0  0
 24 61  1  0  0  0
 24 62  1  0  0  0
 25 28  1  0  0  0
 25 63  1  0  0  0
 25 64  1  0  0  0
 26 36  1  0  0  0
 26 37  1  0  0  0
 26 65  1  0  0  0
 27 66  1  0  0  0
 27 67  1  0  0  0
 28 68  1  0  0  0
 28 69  1  0  0  0
 29 70  1  0  0  0
 29 71  1  0  0  0
 30 41  1  0  0  0
 30 72  1  0  0  0
 31 38  2  0  0  0
 31 73  1  0  0  0
 32 39  1  0  0  0
 32 74  1  0  0  0
 33 40  2  0  0  0
 33 75  1  0  0  0
 34 43  1  0  0  0
 34 76  1  0  0  0
 35 42  2  0  0  0
 35 77  1  0  0  0
 36 78  1  0  0  0
 36 79  1  0  0  0
 36 80  1  0  0  0
 37 81  1  0  0  0
 37 82  1  0  0  0
 37 83  1  0  0  0
 38 44  1  0  0  0
 38 84  1  0  0  0
 39 45  2  0  0  0
 39 85  1  0  0  0
 40 45  1  0  0  0
 40 86  1  0  0  0
 41 44  2  0  0  0
 41 87  1  0  0  0
 42 46  1  0  0  0
 42 88  1  0  0  0
 43 46  2  0  0  0
 43 89  1  0  0  0
 44 90  1  0  0  0
 45 91  1  0  0  0
 46 92  1  0  0  0
M  END
> <chembl_id>
CHEMBL132587

> <chembl_pref_name>
None

> <s_m_source_file>
sdf/inactives_sanitized.sdf

> <i_m_source_file_index>
115

> <i_lp_mmshare_version>
49012

> <i_m_ct_stereo_status>
1

> <i_f3d_flags>
0

> <s_epik_input>
W2NIXTFbY0hdW2NIXVtjSF1bY0hdYzFbQ0hdKGMyW2NIXVtjSF1bY0hdW2NIXVtjSF0yKUMoPU8pW05IXVtDQEhdKFtDSDJdW0NIXShbQ0gzXSlbQ0gzXSlDKD1PKVtOSF1bQ0BIXShbQ0gyXWMzW2NIXVtjSF1bY0hdW2NIXVtjSF0zKUMoPU8pQyg9TylbTkhdW0NIMl1bQ0gyXVtDSDJdTjRbQ0gyXVtDSDJdT1tDSDJdW0NIMl00

> <s_epik_cmdline>
J2VwaWtfcHl0aG9uJywgJy1waHQnLCAnMC41JywgJy1waCcsICc3LjUnLCAnLW50JywgJy1tYScsICcyMDAnLCAnLWltYWUnLCAnPGluZmlsZS5tYWU+JywgJy1vbWFlJywgJzxvdXRmaWxlLm1hZT4n

> <r_lp_tautomer_probability>
0.99990000499975

> <r_epik_Ionization_Penalty>
  0.1883

> <r_epik_Ionization_Penalty_Charging>
  0.0000

> <r_epik_Ionization_Penalty_Neutral>
  0.1883

> <r_epik_State_Penalty>
  0.1780

> <r_epik_Charging_Adjusted_Penalty>
0.177958204080525

> <i_epik_Tot_Q>
0

> <i_epik_Tot_abs_Q>
0

> <s_lp_Force_Field>
OPLS3e

> <r_lp_Energy>
50.471203

> <b_lp_Chiralities_Consistent>
1

> <s_lp_Variant>
sdf/inactives_sanitized.sdf:115-1

$$$$
sdf/inactives_sanitized.sdf:116
                    3D
 Schrodinger Suite 2020-1.
 66 67  0  0  1  0            999 V2000
   -2.5494    2.2343   -0.7717 C   0  0  0  0  0  0
   -0.1583    0.2050   -0.4585 C   0  0  0  0  0  0
   -1.6729    3.4898   -1.2122 C   0  0  0  0  0  0
   -0.7134    1.0683    0.4154 N   0  0  0  0  0  0
    1.8441   -2.0752   -1.6714 C   0  0  0  0  0  0
    1.3763    0.0175   -0.3326 C   0  0  2  0  0  0
   -2.1301    1.4733    0.4919 C   0  0  1  0  0  0
    2.0069   -0.7075   -1.4585 N   0  0  0  0  0  0
   -2.0818    4.0139   -2.3835 N   0  0  0  0  0  0
   -3.5491    1.9138   -1.4201 O   0  0  0  0  0  0
   -0.8032   -0.4007   -1.3164 O   0  0  0  0  0  0
   -1.3359    6.9758   -1.3194 N   0  0  0  0  0  0
    1.2156   -2.8641   -0.9615 O   0  0  0  0  0  0
   -0.7312    3.8974   -0.5301 O   0  0  0  0  0  0
    2.4834   -2.4106   -2.8081 O   0  0  0  0  0  0
    1.8037   -0.5381    1.0644 C   0  0  0  0  0  0
   -1.5224    5.2099   -3.0130 C   0  0  0  0  0  0
   -2.0205    6.5139   -2.4010 C   0  0  0  0  0  0
    2.4520   -3.7486   -3.2977 C   0  0  0  0  0  0
    3.3145   -3.9022   -4.5451 C   0  0  0  0  0  0
   -2.4454    2.2940    1.7691 C   0  0  0  0  0  0
    3.3296   -0.6205    1.3150 C   0  0  0  0  0  0
   -1.7369    8.1484   -0.7648 C   0  0  0  0  0  0
   -3.0916    7.2133   -2.9686 C   0  0  0  0  0  0
    3.9506   -5.1243   -4.7792 C   0  0  0  0  0  0
    3.4607   -2.8540   -5.4619 C   0  0  0  0  0  0
    3.6324   -1.3275    2.6539 C   0  0  0  0  0  0
    4.0208    0.7565    1.2124 C   0  0  0  0  0  0
   -2.1574    1.5357    3.0761 C   0  0  0  0  0  0
   -2.8034    8.8979   -1.2647 C   0  0  0  0  0  0
    4.2493   -3.0256   -6.5967 C   0  0  0  0  0  0
   -3.4858    8.4195   -2.3853 C   0  0  0  0  0  0
    4.7385   -5.2960   -5.9146 C   0  0  0  0  0  0
    4.8857   -4.2452   -6.8173 C   0  0  0  0  0  0
   -0.1098    1.5180    1.0887 H   0  0  0  0  0  0
    1.7889    1.0237   -0.4138 H   0  0  0  0  0  0
   -2.7139    0.5521    0.5593 H   0  0  0  0  0  0
    2.3543   -0.1514   -2.2261 H   0  0  0  0  0  0
   -2.8778    3.5947   -2.8425 H   0  0  0  0  0  0
    1.3753    0.0837    1.8524 H   0  0  0  0  0  0
    1.3641   -1.5247    1.2146 H   0  0  0  0  0  0
   -0.4309    5.1809   -2.9721 H   0  0  0  0  0  0
   -1.7803    5.1893   -4.0726 H   0  0  0  0  0  0
    2.8178   -4.4242   -2.5219 H   0  0  0  0  0  0
    1.4271   -4.0379   -3.5364 H   0  0  0  0  0  0
   -1.8704    3.2211    1.7827 H   0  0  0  0  0  0
   -3.4972    2.5866    1.7709 H   0  0  0  0  0  0
    3.7584   -1.2538    0.5377 H   0  0  0  0  0  0
   -1.1818    8.4874    0.0977 H   0  0  0  0  0  0
   -3.6084    6.8322   -3.8375 H   0  0  0  0  0  0
    3.8372   -5.9421   -4.0821 H   0  0  0  0  0  0
    2.9656   -1.9073   -5.3012 H   0  0  0  0  0  0
    2.7300   -1.7238    3.1208 H   0  0  0  0  0  0
    4.0973   -0.6664    3.3852 H   0  0  0  0  0  0
    4.3091   -2.1689    2.5017 H   0  0  0  0  0  0
    4.7560    0.9188    2.0006 H   0  0  0  0  0  0
    3.3070    1.5786    1.2700 H   0  0  0  0  0  0
    4.5493    0.8493    0.2631 H   0  0  0  0  0  0
   -2.4211    2.1420    3.9430 H   0  0  0  0  0  0
   -1.1020    1.2768    3.1666 H   0  0  0  0  0  0
   -2.7341    0.6119    3.1318 H   0  0  0  0  0  0
   -3.0923    9.8280   -0.7975 H   0  0  0  0  0  0
    4.3654   -2.2171   -7.3033 H   0  0  0  0  0  0
   -4.3117    8.9793   -2.7989 H   0  0  0  0  0  0
    5.2324   -6.2397   -6.0944 H   0  0  0  0  0  0
    5.4969   -4.3782   -7.6979 H   0  0  0  0  0  0
  1  3  1  0  0  0
  1  7  1  0  0  0
  1 10  2  0  0  0
  2  4  1  0  0  0
  2  6  1  0  0  0
  2 11  2  0  0  0
  3  9  1  0  0  0
  3 14  2  0  0  0
  4  7  1  0  0  0
  4 35  1  0  0  0
  5  8  1  0  0  0
  5 13  2  0  0  0
  5 15  1  0  0  0
  6  8  1  0  0  0
  6 16  1  0  0  0
  6 36  1  0  0  0
  7 21  1  0  0  0
  7 37  1  0  0  0
  8 38  1  0  0  0
  9 17  1  0  0  0
  9 39  1  0  0  0
 12 18  2  0  0  0
 12 23  1  0  0  0
 15 19  1  0  0  0
 16 22  1  0  0  0
 16 40  1  0  0  0
 16 41  1  0  0  0
 17 18  1  0  0  0
 17 42  1  0  0  0
 17 43  1  0  0  0
 18 24  1  0  0  0
 19 20  1  0  0  0
 19 44  1  0  0  0
 19 45  1  0  0  0
 20 25  2  0  0  0
 20 26  1  0  0  0
 21 29  1  0  0  0
 21 46  1  0  0  0
 21 47  1  0  0  0
 22 27  1  0  0  0
 22 28  1  0  0  0
 22 48  1  0  0  0
 23 30  2  0  0  0
 23 49  1  0  0  0
 24 32  2  0  0  0
 24 50  1  0  0  0
 25 33  1  0  0  0
 25 51  1  0  0  0
 26 31  2  0  0  0
 26 52  1  0  0  0
 27 53  1  0  0  0
 27 54  1  0  0  0
 27 55  1  0  0  0
 28 56  1  0  0  0
 28 57  1  0  0  0
 28 58  1  0  0  0
 29 59  1  0  0  0
 29 60  1  0  0  0
 29 61  1  0  0  0
 30 32  1  0  0  0
 30 62  1  0  0  0
 31 34  1  0  0  0
 31 63  1  0  0  0
 32 64  1  0  0  0
 33 34  2  0  0  0
 33 65  1  0  0  0
 34 66  1  0  0  0
M  END
> <chembl_id>
CHEMBL130114

> <chembl_pref_name>
None

> <s_m_source_file>
sdf/inactives_sanitized.sdf

> <i_m_source_file_index>
116

> <i_lp_mmshare_version>
49012

> <i_m_ct_stereo_status>
1

> <i_f3d_flags>
0

> <s_epik_input>
W2NIXTFbY0hdW2NIXVtjSF1uYzFbQ0gyXVtOSF1DKD1PKUMoPU8pW0NASF0oW0NIMl1bQ0gzXSlbTkhdQyg9TylbQ0BASF0oW0NIMl1bQ0hdKFtDSDNdKVtDSDNdKVtOSF1DKD1PKU9bQ0gyXWMyW2NIXVtjSF1bY0hdW2NIXVtjSF0y

> <s_epik_cmdline>
J2VwaWtfcHl0aG9uJywgJy1waHQnLCAnMC41JywgJy1waCcsICc3LjUnLCAnLW50JywgJy1tYScsICcyMDAnLCAnLWltYWUnLCAnPGluZmlsZS5tYWU+JywgJy1vbWFlJywgJzxvdXRmaWxlLm1hZT4n

> <r_lp_tautomer_probability>
1

> <r_epik_Ionization_Penalty>
  0.0012

> <r_epik_Ionization_Penalty_Charging>
  0.0000

> <r_epik_Ionization_Penalty_Neutral>
  0.0012

> <r_epik_State_Penalty>
 -0.0000

> <r_epik_Charging_Adjusted_Penalty>
0

> <i_epik_Tot_Q>
0

> <i_epik_Tot_abs_Q>
0

> <s_epik_Chemistry_Notes>
This compound has an ester and may undergo hydrolysis at high or low pH.

> <s_lp_Force_Field>
OPLS3e

> <r_lp_Energy>
43.565179

> <b_lp_Chiralities_Consistent>
1

> <s_lp_Variant>
sdf/inactives_sanitized.sdf:116-1

$$$$
sdf/inactives_sanitized.sdf:117
                    3D
 Schrodinger Suite 2020-1.
 66 69  0  0  1  0            999 V2000
   -4.6400    0.9522   -0.1783 N   0  0  0  0  0  0
   -4.1125    0.6023    1.0371 C   0  0  0  0  0  0
   -2.6390    0.1459    0.9700 C   0  0  0  0  0  0
   -2.4079    1.0575   -1.4004 C   0  0  0  0  0  0
   -1.8062    1.0451    0.0216 C   0  0  2  0  0  0
    0.2868   -0.3302   -0.2836 C   0  0  0  0  0  0
   -0.3533    0.8150    0.0269 N   0  0  0  0  0  0
    2.4416    0.9623    1.9180 C   0  0  0  0  0  0
   -3.9177    0.7544   -1.4626 C   0  0  0  0  0  0
    1.8263   -0.3009   -0.1507 C   0  0  1  0  0  0
    2.2501   -0.2459    1.2585 N   0  0  0  0  0  0
   -6.0707    1.2880   -0.2584 C   0  0  0  0  0  0
   -4.7308    0.6338    2.1026 O   0  0  0  0  0  0
   -1.7459    1.2477   -2.4213 O   0  0  0  0  0  0
   -0.2849   -1.3652   -0.6294 O   0  0  0  0  0  0
    2.5588   -1.4692   -0.8630 C   0  0  0  0  0  0
    2.2754    2.0904    1.4465 O   0  0  0  0  0  0
    2.8396    0.7059    3.1775 O   0  0  0  0  0  0
   -7.0060    0.0847   -0.2535 C   0  0  0  0  0  0
    3.0920    1.7653    4.0960 C   0  0  0  0  0  0
    4.0737   -1.3432   -0.9202 C   0  0  0  0  0  0
    3.6067    1.2262    5.4248 C   0  0  0  0  0  0
   -7.8108   -0.1666    0.8607 C   0  0  0  0  0  0
    4.6810   -0.5538   -1.9198 C   0  0  0  0  0  0
    4.8743   -1.8662    0.1184 C   0  0  0  0  0  0
   -7.0834   -0.7443   -1.3759 C   0  0  0  0  0  0
    4.5464    1.9730    6.1400 C   0  0  0  0  0  0
    3.1407    0.0118    5.9426 C   0  0  0  0  0  0
    6.0559   -0.3586   -1.9117 C   0  0  0  0  0  0
    6.2472   -1.6578    0.1100 C   0  0  0  0  0  0
    3.6244   -0.4575    7.1610 C   0  0  0  0  0  0
   -8.6790   -1.2553    0.8590 C   0  0  0  0  0  0
   -7.9521   -1.8326   -1.3773 C   0  0  0  0  0  0
    5.0293    1.5035    7.3588 C   0  0  0  0  0  0
    6.8357   -0.9125   -0.9042 C   0  0  0  0  0  0
   -8.7447   -2.0841   -0.2593 C   0  0  0  0  0  0
    4.5678    0.2895    7.8627 C   0  0  0  0  0  0
   -2.2237    0.1822    1.9785 H   0  0  0  0  0  0
   -2.6208   -0.9000    0.6601 H   0  0  0  0  0  0
   -1.8902    2.0750    0.3733 H   0  0  0  0  0  0
    0.2115    1.6023    0.3138 H   0  0  0  0  0  0
   -4.3940    1.3011   -2.2774 H   0  0  0  0  0  0
   -4.0046   -0.3006   -1.7252 H   0  0  0  0  0  0
    2.1624    0.5987   -0.6739 H   0  0  0  0  0  0
    2.3843   -1.1127    1.7583 H   0  0  0  0  0  0
   -6.3380    1.9628    0.5573 H   0  0  0  0  0  0
   -6.2567    1.8635   -1.1660 H   0  0  0  0  0  0
    2.3157   -2.4154   -0.3756 H   0  0  0  0  0  0
    2.1958   -1.5633   -1.8882 H   0  0  0  0  0  0
    3.8339    2.4431    3.6691 H   0  0  0  0  0  0
    2.1797    2.3373    4.2729 H   0  0  0  0  0  0
   -7.7601    0.4750    1.7286 H   0  0  0  0  0  0
    4.0798   -0.1009   -2.6947 H   0  0  0  0  0  0
    4.4231   -2.4296    0.9219 H   0  0  0  0  0  0
   -6.4729   -0.5472   -2.2449 H   0  0  0  0  0  0
    4.9058    2.9156    5.7527 H   0  0  0  0  0  0
    2.4057   -0.5705    5.4059 H   0  0  0  0  0  0
    6.5195    0.2341   -2.6867 H   0  0  0  0  0  0
    6.8584   -2.0692    0.8998 H   0  0  0  0  0  0
    3.2688   -1.3959    7.5604 H   0  0  0  0  0  0
   -9.2990   -1.4563    1.7204 H   0  0  0  0  0  0
   -8.0123   -2.4773   -2.2418 H   0  0  0  0  0  0
    5.7581    2.0783    7.9112 H   0  0  0  0  0  0
    7.9037   -0.7522   -0.9026 H   0  0  0  0  0  0
   -9.4183   -2.9283   -0.2600 H   0  0  0  0  0  0
    4.9437   -0.0749    8.8073 H   0  0  0  0  0  0
  1  2  1  0  0  0
  1  9  1  0  0  0
  1 12  1  0  0  0
  2  3  1  0  0  0
  2 13  2  0  0  0
  3  5  1  0  0  0
  3 38  1  0  0  0
  3 39  1  0  0  0
  4  9  1  0  0  0
  4  5  1  0  0  0
  4 14  2  0  0  0
  5  7  1  0  0  0
  5 40  1  0  0  0
  6  7  1  0  0  0
  6 10  1  0  0  0
  6 15  2  0  0  0
  7 41  1  0  0  0
  8 11  1  0  0  0
  8 17  2  0  0  0
  8 18  1  0  0  0
  9 42  1  0  0  0
  9 43  1  0  0  0
 10 11  1  0  0  0
 10 16  1  0  0  0
 10 44  1  0  0  0
 11 45  1  0  0  0
 12 19  1  0  0  0
 12 46  1  0  0  0
 12 47  1  0  0  0
 16 21  1  0  0  0
 16 48  1  0  0  0
 16 49  1  0  0  0
 18 20  1  0  0  0
 19 23  2  0  0  0
 19 26  1  0  0  0
 20 22  1  0  0  0
 20 50  1  0  0  0
 20 51  1  0  0  0
 21 24  2  0  0  0
 21 25  1  0  0  0
 22 27  2  0  0  0
 22 28  1  0  0  0
 23 32  1  0  0  0
 23 52  1  0  0  0
 24 29  1  0  0  0
 24 53  1  0  0  0
 25 30  2  0  0  0
 25 54  1  0  0  0
 26 33  2  0  0  0
 26 55  1  0  0  0
 27 34  1  0  0  0
 27 56  1  0  0  0
 28 31  2  0  0  0
 28 57  1  0  0  0
 29 35  2  0  0  0
 29 58  1  0  0  0
 30 35  1  0  0  0
 30 59  1  0  0  0
 31 37  1  0  0  0
 31 60  1  0  0  0
 32 36  2  0  0  0
 32 61  1  0  0  0
 33 36  1  0  0  0
 33 62  1  0  0  0
 34 37  2  0  0  0
 34 63  1  0  0  0
 35 64  1  0  0  0
 36 65  1  0  0  0
 37 66  1  0  0  0
M  END
> <chembl_id>
CHEMBL419727

> <chembl_pref_name>
None

> <i_m_ct_stereo_status>
1

> <s_m_source_file>
sdf/inactives_sanitized.sdf

> <i_m_source_file_index>
117

> <i_lp_mmshare_version>
49012

> <i_f3d_flags>
0

> <s_epik_input>
W2NIXTFbY0hdW2NIXVtjSF1bY0hdYzFbQ0gyXU4yQyg9TylbQ0gyXVtDQEhdKEMoPU8pW0NIMl0yKVtOSF1DKD1PKVtDQEhdKFtDSDJdYzNbY0hdW2NIXVtjSF1bY0hdW2NIXTMpW05IXUMoPU8pT1tDSDJdYzRbY0hdW2NIXVtjSF1bY0hdW2NIXTQ=

> <s_epik_cmdline>
J2VwaWtfcHl0aG9uJywgJy1waHQnLCAnMC41JywgJy1waCcsICc3LjUnLCAnLW50JywgJy1tYScsICcyMDAnLCAnLWltYWUnLCAnPGluZmlsZS5tYWU+JywgJy1vbWFlJywgJzxvdXRmaWxlLm1hZT4n

> <r_lp_tautomer_probability>
1

> <r_epik_Ionization_Penalty>
  0.0000

> <r_epik_Ionization_Penalty_Charging>
  0.0000

> <r_epik_Ionization_Penalty_Neutral>
  0.0000

> <r_epik_State_Penalty>
 -0.0000

> <r_epik_Charging_Adjusted_Penalty>
0

> <i_epik_Tot_Q>
0

> <i_epik_Tot_abs_Q>
0

> <s_epik_Chemistry_Notes>
This compound has an ester and may undergo hydrolysis at high or low pH.

> <s_lp_Force_Field>
OPLS3e

> <r_lp_Energy>
57.460241

> <b_lp_Chiralities_Consistent>
1

> <s_lp_Variant>
sdf/inactives_sanitized.sdf:117-1

$$$$
sdf/inactives_sanitized.sdf:118
                    3D
 Schrodinger Suite 2020-1.
 43 43  0  0  1  0            999 V2000
   -0.7543    1.2640    0.0693 N   0  0  0  0  0  0
   -0.1135   -0.0591    0.0074 C   0  0  2  0  0  0
   -0.4926   -0.8441    1.2836 C   0  0  0  0  0  0
   -0.4599   -0.2950    2.3873 O   0  0  0  0  0  0
    1.4409    0.0294   -0.0387 C   0  0  0  0  0  0
    2.0199    0.6804   -1.3115 C   0  0  0  0  0  0
    3.5530    0.5779   -1.3940 C   0  0  0  0  0  0
   -1.1170   -3.0584    2.1996 C   0  0  0  0  0  0
    0.0370   -3.3114    3.0809 C   0  0  0  0  0  0
    0.9430   -3.5103    3.7727 N   0  0  0  0  0  0
   -1.0966    1.9596   -1.0830 C   0  0  0  0  0  0
   -1.6012    3.1564   -0.7294 O   0  0  0  0  0  0
   -0.9689    1.5643   -2.2445 O   0  0  0  0  0  0
   -2.0337    4.0901   -1.7158 C   0  0  0  0  0  0
   -2.4592    5.4227   -1.1041 C   0  0  0  0  0  0
   -2.6849    6.5008   -1.9641 C   0  0  0  0  0  0
   -3.0757    7.7357   -1.4531 C   0  0  0  0  0  0
   -3.2434    7.8918   -0.0793 C   0  0  0  0  0  0
   -3.0254    6.8236    0.7873 C   0  0  0  0  0  0
   -2.6345    5.5886    0.2766 C   0  0  0  0  0  0
   -0.8087   -2.1383    1.1091 N   0  0  0  0  0  0
    4.1286    1.2418   -2.6524 C   0  0  0  0  0  0
   -0.9194    1.6816    0.9737 H   0  0  0  0  0  0
   -0.4656   -0.6245   -0.8601 H   0  0  0  0  0  0
    1.8604   -0.9762    0.0388 H   0  0  0  0  0  0
    1.8083    0.5843    0.8277 H   0  0  0  0  0  0
    1.5805    0.2108   -2.1928 H   0  0  0  0  0  0
    1.7392    1.7336   -1.3449 H   0  0  0  0  0  0
    3.9992    1.0383   -0.5113 H   0  0  0  0  0  0
    3.8527   -0.4709   -1.3763 H   0  0  0  0  0  0
   -1.9465   -2.6836    2.8014 H   0  0  0  0  0  0
   -1.4326   -4.0128    1.7783 H   0  0  0  0  0  0
   -1.2216    4.2740   -2.4219 H   0  0  0  0  0  0
   -2.8739    3.6729   -2.2734 H   0  0  0  0  0  0
   -2.5563    6.3842   -3.0307 H   0  0  0  0  0  0
   -3.2485    8.5684   -2.1188 H   0  0  0  0  0  0
   -3.5465    8.8495    0.3176 H   0  0  0  0  0  0
   -3.1594    6.9519    1.8514 H   0  0  0  0  0  0
   -2.4725    4.7698    0.9620 H   0  0  0  0  0  0
   -0.7708   -2.5314    0.1797 H   0  0  0  0  0  0
    5.2153    1.1557   -2.6758 H   0  0  0  0  0  0
    3.8801    2.3031   -2.6884 H   0  0  0  0  0  0
    3.7402    0.7758   -3.5586 H   0  0  0  0  0  0
  1 11  1  0  0  0
  1  2  1  0  0  0
  1 23  1  0  0  0
  2  3  1  0  0  0
  2  5  1  0  0  0
  2 24  1  0  0  0
  3 21  1  0  0  0
  3  4  2  0  0  0
  5  6  1  0  0  0
  5 25  1  0  0  0
  5 26  1  0  0  0
  6  7  1  0  0  0
  6 27  1  0  0  0
  6 28  1  0  0  0
  7 22  1  0  0  0
  7 29  1  0  0  0
  7 30  1  0  0  0
  8 21  1  0  0  0
  8  9  1  0  0  0
  8 31  1  0  0  0
  8 32  1  0  0  0
  9 10  3  0  0  0
 11 12  1  0  0  0
 11 13  2  0  0  0
 12 14  1  0  0  0
 14 15  1  0  0  0
 14 33  1  0  0  0
 14 34  1  0  0  0
 15 16  2  0  0  0
 15 20  1  0  0  0
 16 17  1  0  0  0
 16 35  1  0  0  0
 17 18  2  0  0  0
 17 36  1  0  0  0
 18 19  1  0  0  0
 18 37  1  0  0  0
 19 20  2  0  0  0
 19 38  1  0  0  0
 20 39  1  0  0  0
 21 40  1  0  0  0
 22 41  1  0  0  0
 22 42  1  0  0  0
 22 43  1  0  0  0
M  END
> <chembl_id>
CHEMBL200531

> <chembl_pref_name>
None

> <i_m_ct_stereo_status>
1

> <s_m_source_file>
sdf/inactives_sanitized.sdf

> <i_m_source_file_index>
118

> <i_lp_mmshare_version>
49012

> <i_f3d_flags>
0

> <s_epik_input>
TiNDW0NIMl1bTkhdQyg9TylbQ0BIXShbQ0gyXVtDSDJdW0NIMl1bQ0gzXSlbTkhdQyg9TylPW0NIMl1jMVtjSF1bY0hdW2NIXVtjSF1bY0hdMQ==

> <s_epik_cmdline>
J2VwaWtfcHl0aG9uJywgJy1waHQnLCAnMC41JywgJy1waCcsICc3LjUnLCAnLW50JywgJy1tYScsICcyMDAnLCAnLWltYWUnLCAnPGluZmlsZS5tYWU+JywgJy1vbWFlJywgJzxvdXRmaWxlLm1hZT4n

> <r_lp_tautomer_probability>
1

> <r_epik_Ionization_Penalty>
  0.0000

> <r_epik_Ionization_Penalty_Charging>
  0.0000

> <r_epik_Ionization_Penalty_Neutral>
  0.0000

> <r_epik_State_Penalty>
 -0.0000

> <r_epik_Charging_Adjusted_Penalty>
0

> <i_epik_Tot_Q>
0

> <i_epik_Tot_abs_Q>
0

> <s_epik_Chemistry_Notes>
This compound has an ester and may undergo hydrolysis at high or low pH.

> <s_lp_Force_Field>
OPLS3e

> <r_lp_Energy>
20.433449

> <b_lp_Chiralities_Consistent>
1

> <s_lp_Variant>
sdf/inactives_sanitized.sdf:118-1

$$$$
sdf/inactives_sanitized.sdf:119
                    3D
 Schrodinger Suite 2020-1.
 60 62  0  0  1  0            999 V2000
    0.0721    0.0082    0.1397 C   0  0  1  0  0  0
   -0.6295   -0.8024    1.2530 C   0  0  0  0  0  0
   -4.8366    4.8656   -5.5880 N   0  0  0  0  0  0
   -0.4837    1.4391    0.0998 C   0  0  0  0  0  0
   -3.8915   -0.9208    3.4355 N   0  0  0  0  0  0
   -1.2419    1.8634   -0.9990 C   0  0  0  0  0  0
   -1.7701    3.1619   -1.0740 C   0  0  0  0  0  0
   -4.0775    4.4424   -4.4994 C   0  0  0  0  0  0
   -3.2617   -1.5678    2.7118 C   0  0  0  0  0  0
   -2.5716    3.6018   -2.2584 C   0  0  0  0  0  0
   -6.5445    5.4401   -7.9408 N   0  3  0  0  0  0
    1.6259   -0.0083    0.2417 C   0  0  0  0  0  0
   -0.2587   -0.7056    2.4241 O   0  0  0  0  0  0
   -3.0385    3.5135   -4.6416 C   0  0  0  0  0  0
   -4.3573    4.9388   -3.2214 C   0  0  0  0  0  0
   -3.6141    4.5267   -2.1187 C   0  0  0  0  0  0
   -2.2981    3.1010   -3.5374 C   0  0  0  0  0  0
   -1.6499   -1.5918    0.8747 N   0  0  0  0  0  0
   -6.3040    4.7196   -5.5486 C   0  0  0  0  0  0
   -4.3286    4.7713   -6.9699 C   0  0  0  0  0  0
   -2.4599   -2.3916    1.7897 C   0  0  0  0  0  0
   -0.2531    2.3375    1.1491 C   0  0  0  0  0  0
   -1.5211    4.0350   -0.0046 C   0  0  0  0  0  0
   -0.7706    3.6285    1.0967 C   0  0  0  0  0  0
   -7.0627    5.6539   -6.5141 C   0  0  0  0  0  0
   -5.0353    5.7061   -7.9734 C   0  0  0  0  0  0
    2.3128   -1.3995    0.1834 C   0  0  0  0  0  0
    3.8299   -1.2696    0.4112 C   0  0  0  0  0  0
    2.0228   -2.1609   -1.1252 C   0  0  0  0  0  0
   -0.1834   -0.4535   -0.8157 H   0  0  0  0  0  0
   -1.4296    1.1654   -1.8016 H   0  0  0  0  0  0
   -7.0201    6.0623   -8.5792 H   0  0  0  0  0  0
    2.0312    0.6050   -0.5652 H   0  0  0  0  0  0
    1.9316    0.4889    1.1643 H   0  0  0  0  0  0
   -2.7935    3.0965   -5.6073 H   0  0  0  0  0  0
   -5.1486    5.6594   -3.0728 H   0  0  0  0  0  0
   -3.8656    4.9295   -1.1486 H   0  0  0  0  0  0
   -1.4969    2.3933   -3.6912 H   0  0  0  0  0  0
   -1.9410   -1.5808   -0.0919 H   0  0  0  0  0  0
   -6.5484    3.6872   -5.8050 H   0  0  0  0  0  0
   -6.6813    4.8805   -4.5385 H   0  0  0  0  0  0
   -3.2603    4.9938   -6.9810 H   0  0  0  0  0  0
   -4.4460    3.7424   -7.3145 H   0  0  0  0  0  0
   -1.8328   -3.0680    2.3729 H   0  0  0  0  0  0
   -3.1442   -3.0101    1.2089 H   0  0  0  0  0  0
    0.3240    2.0354    2.0110 H   0  0  0  0  0  0
   -1.8981    5.0470   -0.0228 H   0  0  0  0  0  0
   -0.5884    4.3161    1.9096 H   0  0  0  0  0  0
   -8.1292    5.4299   -6.5549 H   0  0  0  0  0  0
   -6.9258    6.7115   -6.2815 H   0  0  0  0  0  0
   -4.7285    5.5175   -9.0025 H   0  0  0  0  0  0
   -4.8943    6.7638   -7.7434 H   0  0  0  0  0  0
    1.9270   -2.0057    1.0042 H   0  0  0  0  0  0
    4.3030   -0.6794   -0.3747 H   0  0  0  0  0  0
    4.3136   -2.2471    0.4280 H   0  0  0  0  0  0
    4.0469   -0.7861    1.3642 H   0  0  0  0  0  0
    2.3433   -1.5909   -1.9980 H   0  0  0  0  0  0
    0.9612   -2.3788   -1.2393 H   0  0  0  0  0  0
    2.5437   -3.1189   -1.1472 H   0  0  0  0  0  0
   -6.7326    4.4924   -8.2361 H   0  0  0  0  0  0
  1  2  1  0  0  0
  1  4  1  0  0  0
  1 12  1  0  0  0
  1 30  1  0  0  0
  2 13  2  0  0  0
  2 18  1  0  0  0
  3  8  1  0  0  0
  3 19  1  0  0  0
  3 20  1  0  0  0
  4  6  2  0  0  0
  4 22  1  0  0  0
  5  9  3  0  0  0
  6  7  1  0  0  0
  6 31  1  0  0  0
  7 10  1  0  0  0
  7 23  2  0  0  0
  8 14  2  0  0  0
  8 15  1  0  0  0
  9 21  1  0  0  0
 10 16  1  0  0  0
 10 17  2  0  0  0
 11 26  1  0  0  0
 11 25  1  0  0  0
 11 32  1  0  0  0
 11 60  1  0  0  0
 12 27  1  0  0  0
 12 33  1  0  0  0
 12 34  1  0  0  0
 14 17  1  0  0  0
 14 35  1  0  0  0
 15 16  2  0  0  0
 15 36  1  0  0  0
 16 37  1  0  0  0
 17 38  1  0  0  0
 18 21  1  0  0  0
 18 39  1  0  0  0
 19 25  1  0  0  0
 19 40  1  0  0  0
 19 41  1  0  0  0
 20 26  1  0  0  0
 20 42  1  0  0  0
 20 43  1  0  0  0
 21 44  1  0  0  0
 21 45  1  0  0  0
 22 24  2  0  0  0
 22 46  1  0  0  0
 23 24  1  0  0  0
 23 47  1  0  0  0
 24 48  1  0  0  0
 25 49  1  0  0  0
 25 50  1  0  0  0
 26 51  1  0  0  0
 26 52  1  0  0  0
 27 28  1  0  0  0
 27 29  1  0  0  0
 27 53  1  0  0  0
 28 54  1  0  0  0
 28 55  1  0  0  0
 28 56  1  0  0  0
 29 57  1  0  0  0
 29 58  1  0  0  0
 29 59  1  0  0  0
M  CHG  1  11   1
M  END
> <chembl_id>
CHEMBL184514

> <chembl_pref_name>
None

> <i_m_ct_stereo_status>
1

> <s_m_source_file>
sdf/inactives_sanitized.sdf

> <i_m_source_file_index>
119

> <i_lp_mmshare_version>
49012

> <i_f3d_flags>
0

> <s_epik_input>
TiNDW0NIMl1bTkhdQyg9TylbQ0BIXShbQ0gyXVtDSF0oW0NIM10pW0NIM10pYzFbY0hdYyhbY0hdW2NIXVtjSF0xKS1jKFtjSF1bY0hdMilbY0hdW2NIXWMyTjNbQ0gyXVtDSDJdW05IXVtDSDJdW0NIMl0z

> <s_epik_cmdline>
J2VwaWtfcHl0aG9uJywgJy1waHQnLCAnMC41JywgJy1waCcsICc3LjUnLCAnLW50JywgJy1tYScsICcyMDAnLCAnLWltYWUnLCAnPGluZmlsZS5tYWU+JywgJy1vbWFlJywgJzxvdXRmaWxlLm1hZT4n

> <r_epik_Ionization_Penalty>
  0.0268

> <r_epik_Ionization_Penalty_Charging>
  0.0267

> <r_epik_Ionization_Penalty_Neutral>
  0.0001

> <r_epik_State_Penalty>
  0.0218

> <r_epik_Charging_Adjusted_Penalty>
0.0484967002522687

> <i_epik_Tot_Q>
1

> <i_epik_Tot_abs_Q>
1

> <s_lp_Force_Field>
OPLS3e

> <r_lp_Energy>
47.30283

> <b_lp_Chiralities_Consistent>
1

> <s_lp_Variant>
sdf/inactives_sanitized.sdf:119-1

$$$$
sdf/inactives_sanitized.sdf:120
                    3D
 Schrodinger Suite 2020-1.
 78 81  0  0  1  0            999 V2000
    3.8976   -0.2295   -0.9628 C   0  0  2  0  0  0
    4.4677   -0.7532   -2.2739 C   0  0  2  0  0  0
    4.5345   -1.6222   -1.0431 C   0  0  0  0  0  0
    2.3517   -0.2416   -0.8151 C   0  0  0  0  0  0
    0.0550    2.3359    0.0037 C   0  0  0  0  0  0
    0.3683    0.8635    0.2595 C   0  0  1  0  0  0
    4.6277    0.8479   -0.2771 N   0  0  0  0  0  0
    1.7985    0.7157   -0.0455 N   0  0  0  0  0  0
    0.1079    2.8083   -1.5127 C   0  0  0  0  0  0
    5.0297    0.7725    1.0489 C   0  0  0  0  0  0
   -0.2519    3.1342    0.8949 O   0  0  0  0  0  0
    1.6708   -1.0972   -1.3841 O   0  0  0  0  0  0
    0.0864    0.4327    1.7252 C   0  0  0  0  0  0
    4.9100   -0.2030    1.7938 O   0  0  0  0  0  0
    0.1758    1.9997   -2.4400 O   0  0  0  0  0  0
    5.5542    1.9583    1.4073 O   0  0  0  0  0  0
    5.7969   -0.2345   -2.8692 C   0  0  0  0  0  0
    0.0785    4.1483   -1.6342 N   0  0  0  0  0  0
    6.0034    2.1911    2.7364 C   0  0  0  0  0  0
    0.3661   -1.0298    2.0313 C   0  0  0  0  0  0
    0.1216    4.8637   -2.9061 C   0  0  0  0  0  0
    6.1620    3.6844    2.9519 C   0  0  0  0  0  0
   -1.1964    5.7742   -4.8916 C   0  0  0  0  0  0
   -1.2206    4.8763   -3.6633 C   0  0  0  0  0  0
    5.5684    1.0581   -3.6722 C   0  0  0  0  0  0
    6.4722   -1.3112   -3.7364 C   0  0  0  0  0  0
   -0.5760   -2.0208    1.6837 C   0  0  0  0  0  0
    1.6360   -1.4279    2.5019 C   0  0  0  0  0  0
    5.1237    4.4156    3.5342 C   0  0  0  0  0  0
    7.3395    4.3240    2.5573 C   0  0  0  0  0  0
   -1.4277    7.1459   -4.7559 C   0  0  0  0  0  0
   -0.9380    5.2277   -6.1518 C   0  0  0  0  0  0
    7.4771    5.6972    2.7432 C   0  0  0  0  0  0
    5.2628    5.7885    3.7205 C   0  0  0  0  0  0
    1.9225   -2.7750    2.6763 C   0  0  0  0  0  0
   -0.2718   -3.3632    1.8687 C   0  0  0  0  0  0
   -0.9138    6.0516   -7.2743 C   0  0  0  0  0  0
   -1.4007    7.9695   -5.8784 C   0  0  0  0  0  0
    6.4383    6.4230    3.3234 C   0  0  0  0  0  0
   -1.1446    7.4184   -7.1323 C   0  0  0  0  0  0
    0.9697   -3.7378    2.3676 C   0  0  0  0  0  0
    3.7690   -1.0574   -3.0562 H   0  0  0  0  0  0
    5.5030   -1.8007   -0.5741 H   0  0  0  0  0  0
    3.9351   -2.5319   -1.1033 H   0  0  0  0  0  0
   -0.2474    0.2430   -0.3963 H   0  0  0  0  0  0
    4.7519    1.7229   -0.7652 H   0  0  0  0  0  0
    2.4120    1.3534    0.4407 H   0  0  0  0  0  0
    0.6772    1.0336    2.4199 H   0  0  0  0  0  0
   -0.9592    0.6277    1.9708 H   0  0  0  0  0  0
    6.4863    0.0014   -2.0564 H   0  0  0  0  0  0
    0.0264    4.7111   -0.7971 H   0  0  0  0  0  0
    5.2993    1.7929    3.4703 H   0  0  0  0  0  0
    6.9565    1.6878    2.9069 H   0  0  0  0  0  0
    0.4141    5.8932   -2.6947 H   0  0  0  0  0  0
    0.9264    4.5090   -3.5537 H   0  0  0  0  0  0
   -2.0231    5.2062   -3.0010 H   0  0  0  0  0  0
   -1.4970    3.8621   -3.9574 H   0  0  0  0  0  0
    4.9040    0.8891   -4.5209 H   0  0  0  0  0  0
    6.5074    1.4541   -4.0601 H   0  0  0  0  0  0
    5.1196    1.8349   -3.0520 H   0  0  0  0  0  0
    5.8500   -1.5868   -4.5889 H   0  0  0  0  0  0
    6.6652   -2.2172   -3.1607 H   0  0  0  0  0  0
    7.4301   -0.9627   -4.1241 H   0  0  0  0  0  0
   -1.5346   -1.7393    1.2730 H   0  0  0  0  0  0
    2.3896   -0.6867    2.7240 H   0  0  0  0  0  0
    4.2104    3.9241    3.8380 H   0  0  0  0  0  0
    8.1429    3.7611    2.1041 H   0  0  0  0  0  0
   -1.6250    7.5736   -3.7836 H   0  0  0  0  0  0
   -0.7563    4.1684   -6.2633 H   0  0  0  0  0  0
    8.3841    6.1978    2.4372 H   0  0  0  0  0  0
    4.4623    6.3587    4.1688 H   0  0  0  0  0  0
    2.8926   -3.0746    3.0446 H   0  0  0  0  0  0
   -0.9995   -4.1193    1.6135 H   0  0  0  0  0  0
   -0.7165    5.6333   -8.2503 H   0  0  0  0  0  0
   -1.5770    9.0302   -5.7774 H   0  0  0  0  0  0
    6.5449    7.4884    3.4658 H   0  0  0  0  0  0
   -1.1239    8.0573   -8.0028 H   0  0  0  0  0  0
    1.2003   -4.7842    2.5034 H   0  0  0  0  0  0
  1  2  1  0  0  0
  1  3  1  0  0  0
  1  4  1  0  0  0
  1  7  1  0  0  0
  2 17  1  0  0  0
  2  3  1  0  0  0
  2 42  1  0  0  0
  3 43  1  0  0  0
  3 44  1  0  0  0
  4  8  1  0  0  0
  4 12  2  0  0  0
  5  6  1  0  0  0
  5  9  1  0  0  0
  5 11  2  0  0  0
  6  8  1  0  0  0
  6 13  1  0  0  0
  6 45  1  0  0  0
  7 10  1  0  0  0
  7 46  1  0  0  0
  8 47  1  0  0  0
  9 15  2  0  0  0
  9 18  1  0  0  0
 10 14  2  0  0  0
 10 16  1  0  0  0
 13 20  1  0  0  0
 13 48  1  0  0  0
 13 49  1  0  0  0
 16 19  1  0  0  0
 17 25  1  0  0  0
 17 26  1  0  0  0
 17 50  1  0  0  0
 18 21  1  0  0  0
 18 51  1  0  0  0
 19 22  1  0  0  0
 19 52  1  0  0  0
 19 53  1  0  0  0
 20 27  2  0  0  0
 20 28  1  0  0  0
 21 24  1  0  0  0
 21 54  1  0  0  0
 21 55  1  0  0  0
 22 29  2  0  0  0
 22 30  1  0  0  0
 23 24  1  0  0  0
 23 31  2  0  0  0
 23 32  1  0  0  0
 24 56  1  0  0  0
 24 57  1  0  0  0
 25 58  1  0  0  0
 25 59  1  0  0  0
 25 60  1  0  0  0
 26 61  1  0  0  0
 26 62  1  0  0  0
 26 63  1  0  0  0
 27 36  1  0  0  0
 27 64  1  0  0  0
 28 35  2  0  0  0
 28 65  1  0  0  0
 29 34  1  0  0  0
 29 66  1  0  0  0
 30 33  2  0  0  0
 30 67  1  0  0  0
 31 38  1  0  0  0
 31 68  1  0  0  0
 32 37  2  0  0  0
 32 69  1  0  0  0
 33 39  1  0  0  0
 33 70  1  0  0  0
 34 39  2  0  0  0
 34 71  1  0  0  0
 35 41  1  0  0  0
 35 72  1  0  0  0
 36 41  2  0  0  0
 36 73  1  0  0  0
 37 40  1  0  0  0
 37 74  1  0  0  0
 38 40  2  0  0  0
 38 75  1  0  0  0
 39 76  1  0  0  0
 40 77  1  0  0  0
 41 78  1  0  0  0
M  END
> <chembl_id>
CHEMBL84246

> <chembl_pref_name>
None

> <i_m_ct_stereo_status>
1

> <s_m_source_file>
sdf/inactives_sanitized.sdf

> <i_m_source_file_index>
120

> <i_lp_mmshare_version>
49012

> <i_f3d_flags>
0

> <s_epik_input>
W2NIXTFbY0hdW2NIXVtjSF1bY0hdYzFbQ0gyXU9DKD1PKVtOSF1bQ0BdMihbQ0BIXShbQ0gyXTIpW0NIXShbQ0gzXSlbQ0gzXSlDKD1PKVtOSF1bQ0BASF0oW0NIMl1jM1tjSF1bY0hdW2NIXVtjSF1bY0hdMylDKD1PKUMoPU8pW05IXVtDSDJdW0NIMl1jNFtjSF1bY0hdW2NIXVtjSF1bY0hdNA==

> <s_epik_cmdline>
J2VwaWtfcHl0aG9uJywgJy1waHQnLCAnMC41JywgJy1waCcsICc3LjUnLCAnLW50JywgJy1tYScsICcyMDAnLCAnLWltYWUnLCAnPGluZmlsZS5tYWU+JywgJy1vbWFlJywgJzxvdXRmaWxlLm1hZT4n

> <r_lp_tautomer_probability>
1

> <r_epik_Ionization_Penalty>
  0.0000

> <r_epik_Ionization_Penalty_Charging>
  0.0000

> <r_epik_Ionization_Penalty_Neutral>
  0.0000

> <r_epik_State_Penalty>
 -0.0000

> <r_epik_Charging_Adjusted_Penalty>
0

> <i_epik_Tot_Q>
0

> <i_epik_Tot_abs_Q>
0

> <s_epik_Chemistry_Notes>
This compound has an ester and may undergo hydrolysis at high or low pH.

> <s_lp_Force_Field>
OPLS3e

> <r_lp_Energy>
45.361819

> <b_lp_Chiralities_Consistent>
1

> <s_lp_Variant>
sdf/inactives_sanitized.sdf:120-1

$$$$
sdf/inactives_sanitized.sdf:121
                    3D
 Schrodinger Suite 2020-1.
 50 52  0  0  1  0            999 V2000
   -0.2551   -2.3024   -1.2866 C   0  0  0  0  0  0
   -0.6564   -0.8098   -1.2833 C   0  0  0  0  0  0
   -0.0840   -0.0301   -0.0561 C   0  0  0  0  0  0
   -0.6514   -0.7608    1.2127 C   0  0  0  0  0  0
   -0.2393   -2.2481    1.2712 C   0  0  0  0  0  0
   -0.6985   -3.0073    0.0107 C   0  0  0  0  0  0
    1.3964   -0.0044   -0.1038 N   0  0  0  0  0  0
   -0.6992    1.4095   -0.2024 C   0  0  0  0  0  0
   -1.8866    1.6798    0.3741 N   0  0  0  0  0  0
   -0.1152    2.2565   -0.8833 O   0  0  0  0  0  0
   -2.5998    2.9493    0.2600 C   0  0  0  0  0  0
   -3.0705    3.2183   -1.1104 C   0  0  0  0  0  0
   -3.4406    3.4290   -2.1864 N   0  0  0  0  0  0
    2.2461    0.6367    0.7292 C   0  0  0  0  0  0
    3.7198    0.4261    0.4647 C   0  0  0  0  0  0
    1.8686    1.3428    1.6666 O   0  0  0  0  0  0
    4.6442    0.5970    1.5012 C   0  0  0  0  0  0
    6.0050    0.4136    1.2720 C   0  0  0  0  0  0
    6.4805    0.0628    0.0022 C   0  0  0  0  0  0
    5.5524   -0.1014   -1.0335 C   0  0  0  0  0  0
    4.1903    0.0764   -0.8087 C   0  0  0  0  0  0
    7.9430   -0.1288   -0.2426 C   0  0  0  0  0  0
    8.5189    0.2369   -1.4684 C   0  0  0  0  0  0
    9.8812    0.0618   -1.6972 C   0  0  0  0  0  0
   10.6830   -0.4841   -0.6997 C   0  0  0  0  0  0
   10.1324   -0.8556    0.5230 C   0  0  0  0  0  0
    8.7700   -0.6775    0.7487 C   0  0  0  0  0  0
   -0.6974   -2.8038   -2.1483 H   0  0  0  0  0  0
    0.8256   -2.3986   -1.4028 H   0  0  0  0  0  0
   -0.2344   -0.3883   -2.1989 H   0  0  0  0  0  0
   -1.7363   -0.6862   -1.3970 H   0  0  0  0  0  0
   -0.2327   -0.2962    2.1066 H   0  0  0  0  0  0
   -1.7325   -0.6619    1.3223 H   0  0  0  0  0  0
    0.8438   -2.3306    1.3745 H   0  0  0  0  0  0
   -0.6638   -2.7164    2.1600 H   0  0  0  0  0  0
   -1.7864   -3.0917    0.0190 H   0  0  0  0  0  0
   -0.3155   -4.0284    0.0301 H   0  0  0  0  0  0
    1.8061   -0.7610   -0.6315 H   0  0  0  0  0  0
   -2.3635    0.9398    0.8680 H   0  0  0  0  0  0
   -3.4694    2.9274    0.9167 H   0  0  0  0  0  0
   -1.9705    3.7782    0.5881 H   0  0  0  0  0  0
    4.3180    0.8719    2.4946 H   0  0  0  0  0  0
    6.6910    0.5610    2.0931 H   0  0  0  0  0  0
    5.8800   -0.3777   -2.0250 H   0  0  0  0  0  0
    3.5113   -0.0544   -1.6393 H   0  0  0  0  0  0
    7.9152    0.6723   -2.2512 H   0  0  0  0  0  0
   10.3141    0.3505   -2.6436 H   0  0  0  0  0  0
   11.7399   -0.6209   -0.8758 H   0  0  0  0  0  0
   10.7586   -1.2820    1.2928 H   0  0  0  0  0  0
    8.3594   -0.9809    1.7006 H   0  0  0  0  0  0
  1  2  1  0  0  0
  1  6  1  0  0  0
  1 28  1  0  0  0
  1 29  1  0  0  0
  2  3  1  0  0  0
  2 30  1  0  0  0
  2 31  1  0  0  0
  3  7  1  0  0  0
  3  8  1  0  0  0
  3  4  1  0  0  0
  4  5  1  0  0  0
  4 32  1  0  0  0
  4 33  1  0  0  0
  5  6  1  0  0  0
  5 34  1  0  0  0
  5 35  1  0  0  0
  6 36  1  0  0  0
  6 37  1  0  0  0
  7 14  1  0  0  0
  7 38  1  0  0  0
  8  9  1  0  0  0
  8 10  2  0  0  0
  9 11  1  0  0  0
  9 39  1  0  0  0
 11 12  1  0  0  0
 11 40  1  0  0  0
 11 41  1  0  0  0
 12 13  3  0  0  0
 14 15  1  0  0  0
 14 16  2  0  0  0
 15 17  2  0  0  0
 15 21  1  0  0  0
 17 18  1  0  0  0
 17 42  1  0  0  0
 18 19  2  0  0  0
 18 43  1  0  0  0
 19 20  1  0  0  0
 19 22  1  0  0  0
 20 21  2  0  0  0
 20 44  1  0  0  0
 21 45  1  0  0  0
 22 23  2  0  0  0
 22 27  1  0  0  0
 23 24  1  0  0  0
 23 46  1  0  0  0
 24 25  2  0  0  0
 24 47  1  0  0  0
 25 26  1  0  0  0
 25 48  1  0  0  0
 26 27  2  0  0  0
 26 49  1  0  0  0
 27 50  1  0  0  0
M  END
> <chembl_id>
CHEMBL200619

> <chembl_pref_name>
None

> <s_m_source_file>
sdf/inactives_sanitized.sdf

> <i_m_source_file_index>
121

> <i_lp_mmshare_version>
49012

> <i_m_ct_stereo_status>
1

> <i_f3d_flags>
0

> <s_epik_input>
W0NIMl0xW0NIMl1bQ0gyXVtDSDJdW0NIMl1DMShDKD1PKVtOSF1bQ0gyXUMjTilbTkhdQyg9TyljMltjSF1bY0hdYyhbY0hdW2NIXTIpLWMzW2NIXVtjSF1bY0hdW2NIXVtjSF0z

> <s_epik_cmdline>
J2VwaWtfcHl0aG9uJywgJy1waHQnLCAnMC41JywgJy1waCcsICc3LjUnLCAnLW50JywgJy1tYScsICcyMDAnLCAnLWltYWUnLCAnPGluZmlsZS5tYWU+JywgJy1vbWFlJywgJzxvdXRmaWxlLm1hZT4n

> <r_lp_tautomer_probability>
1

> <r_epik_Ionization_Penalty>
  0.0000

> <r_epik_Ionization_Penalty_Charging>
  0.0000

> <r_epik_Ionization_Penalty_Neutral>
  0.0000

> <r_epik_State_Penalty>
 -0.0000

> <r_epik_Charging_Adjusted_Penalty>
0

> <i_epik_Tot_Q>
0

> <i_epik_Tot_abs_Q>
0

> <s_lp_Force_Field>
OPLS3e

> <r_lp_Energy>
44.370791

> <b_lp_Chiralities_Consistent>
1

> <s_lp_Variant>
sdf/inactives_sanitized.sdf:121-1

$$$$
sdf/inactives_sanitized.sdf:122
                    3D
 Schrodinger Suite 2020-1.
 58 60  0  0  1  0            999 V2000
   -0.2247   -2.3315   -1.1824 C   0  0  0  0  0  0
   -0.7077   -0.8656   -1.2336 C   0  0  0  0  0  0
   -0.2579   -0.0400    0.0213 C   0  0  0  0  0  0
   -0.8358   -0.7795    1.2705 C   0  0  0  0  0  0
   -0.3645   -2.2477    1.3696 C   0  0  0  0  0  0
   -0.7137   -3.0409    0.0953 C   0  0  0  0  0  0
    1.2172    0.0811    0.1241 N   0  0  0  0  0  0
   -0.9988    1.3454    0.0113 C   0  0  0  0  0  0
    2.0637    0.7436   -0.6964 C   0  0  0  0  0  0
    3.5433    0.5833   -0.4113 C   0  0  0  0  0  0
    1.6762    1.4394   -1.6372 O   0  0  0  0  0  0
    4.4835    1.0298   -1.3459 C   0  0  0  0  0  0
    5.8475    0.8905   -1.1058 C   0  0  0  0  0  0
    6.3256    0.3202    0.0846 C   0  0  0  0  0  0
    5.3735   -0.1439    1.0074 C   0  0  0  0  0  0
    4.0084   -0.0086    0.7707 C   0  0  0  0  0  0
    7.7012    0.1496    0.2994 N   0  0  0  0  0  0
    8.6978    1.0915   -0.2539 C   0  0  0  0  0  0
    8.9235    2.3143    0.6650 C   0  0  0  0  0  0
    9.4533    1.8129    2.0242 N   0  3  0  0  0  0
    8.4504    0.7975    2.6089 C   0  0  0  0  0  0
    8.2578   -0.3382    1.5784 C   0  0  0  0  0  0
    9.6681    2.9903    2.9948 C   0  0  0  0  0  0
   -2.1092    1.4723   -0.5106 O   0  0  0  0  0  0
   -0.4706    2.3328    0.7618 N   0  0  0  0  0  0
   -1.0910    3.6361    0.9836 C   0  0  0  0  0  0
   -2.3224    3.5509    1.7880 C   0  0  0  0  0  0
   -3.2890    3.4838    2.4205 N   0  0  0  0  0  0
   -0.5782   -2.8697   -2.0627 H   0  0  0  0  0  0
    0.8652   -2.3648   -1.2250 H   0  0  0  0  0  0
   -0.2601   -0.4279   -2.1273 H   0  0  0  0  0  0
   -1.7839   -0.8224   -1.4123 H   0  0  0  0  0  0
   -0.4738   -0.2859    2.1752 H   0  0  0  0  0  0
   -1.9246   -0.7083    1.3362 H   0  0  0  0  0  0
    0.7132   -2.2822    1.5360 H   0  0  0  0  0  0
   -0.8196   -2.7260    2.2378 H   0  0  0  0  0  0
   -1.7952   -3.1737    0.0400 H   0  0  0  0  0  0
   -0.2876   -4.0433    0.1513 H   0  0  0  0  0  0
    1.6470   -0.6569    0.6620 H   0  0  0  0  0  0
    4.1691    1.4800   -2.2771 H   0  0  0  0  0  0
    6.5162    1.2288   -1.8809 H   0  0  0  0  0  0
    5.6640   -0.6080    1.9364 H   0  0  0  0  0  0
    3.3241   -0.3724    1.5237 H   0  0  0  0  0  0
    9.6432    0.5619   -0.3866 H   0  0  0  0  0  0
    8.4426    1.4227   -1.2579 H   0  0  0  0  0  0
    9.6873    2.9830    0.2654 H   0  0  0  0  0  0
    8.0071    2.8785    0.8499 H   0  0  0  0  0  0
    8.8894    0.4304    3.5377 H   0  0  0  0  0  0
    7.5238    1.3314    2.8297 H   0  0  0  0  0  0
    7.6595   -1.1486    1.9918 H   0  0  0  0  0  0
    9.2236   -0.8076    1.3813 H   0  0  0  0  0  0
    8.7087    3.4884    3.1458 H   0  0  0  0  0  0
   10.3985    3.6565    2.5340 H   0  0  0  0  0  0
   10.0553    2.5732    3.9254 H   0  0  0  0  0  0
    0.3854    2.1507    1.2648 H   0  0  0  0  0  0
   -0.3868    4.2793    1.5110 H   0  0  0  0  0  0
   -1.3212    4.1228    0.0344 H   0  0  0  0  0  0
   10.3323    1.3389    1.8686 H   0  0  0  0  0  0
  1  2  1  0  0  0
  1  6  1  0  0  0
  1 29  1  0  0  0
  1 30  1  0  0  0
  2  3  1  0  0  0
  2 31  1  0  0  0
  2 32  1  0  0  0
  3  7  1  0  0  0
  3  8  1  0  0  0
  3  4  1  0  0  0
  4  5  1  0  0  0
  4 33  1  0  0  0
  4 34  1  0  0  0
  5  6  1  0  0  0
  5 35  1  0  0  0
  5 36  1  0  0  0
  6 37  1  0  0  0
  6 38  1  0  0  0
  7  9  1  0  0  0
  7 39  1  0  0  0
  8 24  2  0  0  0
  8 25  1  0  0  0
  9 10  1  0  0  0
  9 11  2  0  0  0
 10 16  1  0  0  0
 10 12  2  0  0  0
 12 13  1  0  0  0
 12 40  1  0  0  0
 13 14  2  0  0  0
 13 41  1  0  0  0
 14 15  1  0  0  0
 14 17  1  0  0  0
 15 16  2  0  0  0
 15 42  1  0  0  0
 16 43  1  0  0  0
 17 18  1  0  0  0
 17 22  1  0  0  0
 18 19  1  0  0  0
 18 44  1  0  0  0
 18 45  1  0  0  0
 19 20  1  0  0  0
 19 46  1  0  0  0
 19 47  1  0  0  0
 20 21  1  0  0  0
 20 23  1  0  0  0
 20 58  1  0  0  0
 21 22  1  0  0  0
 21 48  1  0  0  0
 21 49  1  0  0  0
 22 50  1  0  0  0
 22 51  1  0  0  0
 23 52  1  0  0  0
 23 53  1  0  0  0
 23 54  1  0  0  0
 25 26  1  0  0  0
 25 55  1  0  0  0
 26 27  1  0  0  0
 26 56  1  0  0  0
 26 57  1  0  0  0
 27 28  3  0  0  0
M  CHG  1  20   1
M  END
> <chembl_id>
CHEMBL440035

> <chembl_pref_name>
None

> <s_m_source_file>
sdf/inactives_sanitized.sdf

> <i_m_source_file_index>
122

> <i_lp_mmshare_version>
49012

> <i_m_ct_stereo_status>
1

> <i_f3d_flags>
0

> <s_epik_input>
W0NIMl0xW0NIMl1bQ0gyXVtDSDJdW0NIMl1DMShDKD1PKVtOSF1bQ0gyXUMjTilbTkhdQyg9TyljMltjSF1bY0hdYyhbY0hdW2NIXTIpTjNbQ0gyXVtDSDJdTihbQ0gzXSlbQ0gyXVtDSDJdMw==

> <s_epik_cmdline>
J2VwaWtfcHl0aG9uJywgJy1waHQnLCAnMC41JywgJy1waCcsICc3LjUnLCAnLW50JywgJy1tYScsICcyMDAnLCAnLWltYWUnLCAnPGluZmlsZS5tYWU+JywgJy1vbWFlJywgJzxvdXRmaWxlLm1hZT4n

> <r_epik_Ionization_Penalty>
  0.1844

> <r_epik_Ionization_Penalty_Charging>
  0.1844

> <r_epik_Ionization_Penalty_Neutral>
  0.0000

> <r_epik_State_Penalty>
  0.1740

> <r_epik_Charging_Adjusted_Penalty>
0.358412825985856

> <i_epik_Tot_Q>
1

> <i_epik_Tot_abs_Q>
1

> <s_lp_Force_Field>
OPLS3e

> <r_lp_Energy>
63.782087

> <b_lp_Chiralities_Consistent>
1

> <s_lp_Variant>
sdf/inactives_sanitized.sdf:122-1

$$$$
sdf/inactives_sanitized.sdf:123
                    3D
 Schrodinger Suite 2020-1.
 73 76  0  0  1  0            999 V2000
    8.6344    0.0118    0.0160 C   0  0  0  0  0  0
   10.4183    0.1184   -0.1378 S   0  0  0  0  0  0
   10.7016    1.5242   -1.1782 N   0  0  0  0  0  0
   10.9559    0.4294    1.1923 O   0  0  0  0  0  0
   10.8693   -1.0748   -0.8642 O   0  0  0  0  0  0
   10.2228    1.3910   -2.5747 C   0  0  0  0  0  0
   10.7972    2.5440   -3.4309 C   0  0  0  0  0  0
   10.3890    3.8427   -2.8570 N   0  0  0  0  0  0
   10.8882    3.9683   -1.4740 C   0  0  0  0  0  0
   10.3058    2.8314   -0.6037 C   0  0  0  0  0  0
   10.8588    4.9879   -3.6506 C   0  0  0  0  0  0
   10.2253    5.1145   -5.0563 C   0  0  0  0  0  0
   10.4324    6.3395   -5.5381 F   0  0  0  0  0  0
   10.7574    4.2625   -5.9325 F   0  0  0  0  0  0
    8.9062    4.9157   -5.0379 F   0  0  0  0  0  0
   -3.5770   -3.8066    0.1139 C   0  0  0  0  0  0
   -2.1670   -3.2077   -0.1025 C   0  0  0  0  0  0
   -2.0205   -1.6432   -0.1654 C   0  0  0  0  0  0
   -2.9804   -0.9861    0.8911 C   0  0  0  0  0  0
   -4.3957   -1.5869    1.0127 C   0  0  0  0  0  0
   -4.3502   -3.1037    1.2370 C   0  0  0  0  0  0
   -0.5825   -1.3206    0.0058 N   0  0  0  0  0  0
   -2.4596   -1.0851   -1.5655 C   0  0  0  0  0  0
   -3.3274   -1.7966   -2.3093 N   0  0  0  0  0  0
   -2.0628    0.0201   -1.9444 O   0  0  0  0  0  0
   -3.8159   -1.4067   -3.6291 C   0  0  0  0  0  0
   -2.7537   -1.4012   -4.6503 C   0  0  0  0  0  0
   -1.9195   -1.3979   -5.4521 N   0  0  0  0  0  0
    0.0256   -0.2341    0.5348 C   0  0  0  0  0  0
   -0.5828    0.7098    1.0408 O   0  0  0  0  0  0
    1.5386   -0.2169    0.4555 C   0  0  0  0  0  0
    2.2316    0.9844    0.6540 C   0  0  0  0  0  0
    3.6212    1.0225    0.5787 C   0  0  0  0  0  0
    4.3552   -0.1364    0.3042 C   0  0  0  0  0  0
    3.6650   -1.3385    0.1151 C   0  0  0  0  0  0
    2.2757   -1.3817    0.1906 C   0  0  0  0  0  0
    5.8424   -0.0900    0.2093 C   0  0  0  0  0  0
    6.5127   -0.7860   -0.8049 C   0  0  0  0  0  0
    7.8999   -0.7346   -0.9054 C   0  0  0  0  0  0
    7.9811    0.7103    1.0315 C   0  0  0  0  0  0
    6.5935    0.6565    1.1263 C   0  0  0  0  0  0
   10.5850    0.4477   -2.9837 H   0  0  0  0  0  0
    9.1339    1.4552   -2.6096 H   0  0  0  0  0  0
   11.8885    2.5217   -3.3915 H   0  0  0  0  0  0
   10.4787    2.4296   -4.4658 H   0  0  0  0  0  0
   10.6521    4.9432   -1.0446 H   0  0  0  0  0  0
   11.9745    3.8650   -1.5266 H   0  0  0  0  0  0
   10.7254    2.9176    0.3989 H   0  0  0  0  0  0
    9.2191    2.9317   -0.5971 H   0  0  0  0  0  0
   10.6108    5.8992   -3.1033 H   0  0  0  0  0  0
   11.9472    4.9691   -3.7338 H   0  0  0  0  0  0
   -4.1571   -3.7574   -0.8069 H   0  0  0  0  0  0
   -3.4889   -4.8695    0.3417 H   0  0  0  0  0  0
   -1.5417   -3.5558    0.7224 H   0  0  0  0  0  0
   -1.6509   -3.6778   -0.9422 H   0  0  0  0  0  0
   -2.4957   -1.0571    1.8664 H   0  0  0  0  0  0
   -3.0297    0.0974    0.7679 H   0  0  0  0  0  0
   -4.9283   -1.1088    1.8357 H   0  0  0  0  0  0
   -4.9707   -1.3638    0.1130 H   0  0  0  0  0  0
   -5.3637   -3.5024    1.2971 H   0  0  0  0  0  0
   -3.8791   -3.3188    2.1974 H   0  0  0  0  0  0
    0.0219   -1.8922   -0.5656 H   0  0  0  0  0  0
   -3.6138   -2.7055   -1.9758 H   0  0  0  0  0  0
   -4.5827   -2.1139   -3.9450 H   0  0  0  0  0  0
   -4.2825   -0.4207   -3.5960 H   0  0  0  0  0  0
    1.7007    1.9031    0.8615 H   0  0  0  0  0  0
    4.1253    1.9666    0.7256 H   0  0  0  0  0  0
    4.2052   -2.2518   -0.0883 H   0  0  0  0  0  0
    1.7871   -2.3337    0.0416 H   0  0  0  0  0  0
    5.9575   -1.3623   -1.5310 H   0  0  0  0  0  0
    8.3968   -1.2675   -1.7030 H   0  0  0  0  0  0
    8.5419    1.2987    1.7430 H   0  0  0  0  0  0
    6.1025    1.2002    1.9205 H   0  0  0  0  0  0
  1  2  1  0  0  0
  1 39  2  0  0  0
  1 40  1  0  0  0
  2  3  1  0  0  0
  2  4  2  0  0  0
  2  5  2  0  0  0
  3  6  1  0  0  0
  3 10  1  0  0  0
  6  7  1  0  0  0
  6 42  1  0  0  0
  6 43  1  0  0  0
  7  8  1  0  0  0
  7 44  1  0  0  0
  7 45  1  0  0  0
  8 11  1  0  0  0
  8  9  1  0  0  0
  9 10  1  0  0  0
  9 46  1  0  0  0
  9 47  1  0  0  0
 10 48  1  0  0  0
 10 49  1  0  0  0
 11 12  1  0  0  0
 11 50  1  0  0  0
 11 51  1  0  0  0
 12 13  1  0  0  0
 12 14  1  0  0  0
 12 15  1  0  0  0
 16 17  1  0  0  0
 16 21  1  0  0  0
 16 52  1  0  0  0
 16 53  1  0  0  0
 17 18  1  0  0  0
 17 54  1  0  0  0
 17 55  1  0  0  0
 18 23  1  0  0  0
 18 19  1  0  0  0
 18 22  1  0  0  0
 19 20  1  0  0  0
 19 56  1  0  0  0
 19 57  1  0  0  0
 20 21  1  0  0  0
 20 58  1  0  0  0
 20 59  1  0  0  0
 21 60  1  0  0  0
 21 61  1  0  0  0
 22 29  1  0  0  0
 22 62  1  0  0  0
 23 24  1  0  0  0
 23 25  2  0  0  0
 24 26  1  0  0  0
 24 63  1  0  0  0
 26 27  1  0  0  0
 26 64  1  0  0  0
 26 65  1  0  0  0
 27 28  3  0  0  0
 29 30  2  0  0  0
 29 31  1  0  0  0
 31 32  2  0  0  0
 31 36  1  0  0  0
 32 33  1  0  0  0
 32 66  1  0  0  0
 33 34  2  0  0  0
 33 67  1  0  0  0
 34 35  1  0  0  0
 34 37  1  0  0  0
 35 36  2  0  0  0
 35 68  1  0  0  0
 36 69  1  0  0  0
 37 38  2  0  0  0
 37 41  1  0  0  0
 38 39  1  0  0  0
 38 70  1  0  0  0
 39 71  1  0  0  0
 40 41  2  0  0  0
 40 72  1  0  0  0
 41 73  1  0  0  0
M  END
> <chembl_id>
CHEMBL197440

> <chembl_pref_name>
None

> <s_m_source_file>
sdf/inactives_sanitized.sdf

> <i_m_source_file_index>
123

> <i_lp_mmshare_version>
49012

> <i_m_ct_stereo_status>
1

> <i_f3d_flags>
0

> <s_epik_input>
RkMoRikoRilbQ0gyXU4oW0NIMl1bQ0gyXTEpW0NIMl1bQ0gyXU4xUyg9TykoPU8pYzJbY0hdW2NIXWMoW2NIXVtjSF0yKS1jKFtjSF1bY0hdMylbY0hdW2NIXWMzQyg9TylbTkhdQzQoQyg9TylbTkhdW0NIMl1DI04pW0NIMl1bQ0gyXVtDSDJdW0NIMl1bQ0gyXTQ=

> <s_epik_cmdline>
J2VwaWtfcHl0aG9uJywgJy1waHQnLCAnMC41JywgJy1waCcsICc3LjUnLCAnLW50JywgJy1tYScsICcyMDAnLCAnLWltYWUnLCAnPGluZmlsZS5tYWU+JywgJy1vbWFlJywgJzxvdXRmaWxlLm1hZT4n

> <r_lp_tautomer_probability>
1

> <r_epik_Ionization_Penalty>
  0.0008

> <r_epik_Ionization_Penalty_Charging>
  0.0000

> <r_epik_Ionization_Penalty_Neutral>
  0.0008

> <r_epik_State_Penalty>
 -0.0000

> <r_epik_Charging_Adjusted_Penalty>
0

> <i_epik_Tot_Q>
0

> <i_epik_Tot_abs_Q>
0

> <s_lp_Force_Field>
OPLS3e

> <r_lp_Energy>
62.339394

> <b_lp_Chiralities_Consistent>
1

> <s_lp_Variant>
sdf/inactives_sanitized.sdf:123-1

$$$$
sdf/inactives_sanitized.sdf:124
                    3D
 Schrodinger Suite 2020-1.
 50 52  0  0  1  0            999 V2000
   -0.0406   -0.0277   -0.0082 N   0  0  0  0  0  0
    1.4281   -0.0373   -0.0799 C   0  0  2  0  0  0
    1.9200   -0.0023   -1.5457 C   0  0  0  0  0  0
    2.8866    0.8871   -1.8259 N   0  0  0  0  0  0
    1.4638   -0.8005   -2.3655 O   0  0  0  0  0  0
    2.0069   -1.2352    0.7202 C   0  0  0  0  0  0
    3.5302   -1.2018    0.8282 C   0  0  0  0  0  0
    3.5739    0.9635   -3.1101 C   0  0  0  0  0  0
    4.4194   -0.2155   -3.3704 C   0  0  0  0  0  0
    5.0837   -1.1410   -3.5737 N   0  0  0  0  0  0
   -0.7579    1.1633   -0.0034 C   0  0  0  0  0  0
   -2.0727    0.8758    0.0397 O   0  0  0  0  0  0
   -0.2861    2.3030   -0.0381 O   0  0  0  0  0  0
   -3.0463    1.9134    0.0602 C   0  0  0  0  0  0
   -4.4404    1.3099    0.0571 C   0  0  0  0  0  0
   -5.2996    1.5484   -1.0184 C   0  0  0  0  0  0
   -6.5788    0.9977   -1.0199 C   0  0  0  0  0  0
   -6.9938    0.2124    0.0537 C   0  0  0  0  0  0
   -6.1418   -0.0269    1.1301 C   0  0  0  0  0  0
   -4.8628    0.5238    1.1327 C   0  0  0  0  0  0
    4.1468   -0.3414    1.7383 C   0  0  0  0  0  0
    5.6961   -1.9799    0.0677 C   0  0  0  0  0  0
    4.3064   -2.0159    0.0032 C   0  0  0  0  0  0
    6.3481   -1.1132    0.9779 C   0  0  0  0  0  0
    5.5596   -0.2794    1.8288 C   0  0  0  0  0  0
    6.2125    0.5899    2.7383 C   0  0  0  0  0  0
    7.6033    0.6278    2.7998 C   0  0  0  0  0  0
    8.3708   -0.1847    1.9717 C   0  0  0  0  0  0
    7.7613   -1.0494    1.0663 C   0  0  0  0  0  0
   -0.5345   -0.9082   -0.0126 H   0  0  0  0  0  0
    1.8053    0.8494    0.4384 H   0  0  0  0  0  0
    3.2341    1.4817   -1.0875 H   0  0  0  0  0  0
    1.5963   -1.2372    1.7317 H   0  0  0  0  0  0
    1.6855   -2.1799    0.2764 H   0  0  0  0  0  0
    2.8620    1.0798   -3.9288 H   0  0  0  0  0  0
    4.2152    1.8447   -3.1155 H   0  0  0  0  0  0
   -2.9198    2.5665   -0.8054 H   0  0  0  0  0  0
   -2.9260    2.5306    0.9520 H   0  0  0  0  0  0
   -4.9799    2.1566   -1.8522 H   0  0  0  0  0  0
   -7.2459    1.1784   -1.8498 H   0  0  0  0  0  0
   -7.9861   -0.2144    0.0519 H   0  0  0  0  0  0
   -6.4718   -0.6366    1.9582 H   0  0  0  0  0  0
   -4.2015    0.3385    1.9669 H   0  0  0  0  0  0
    3.5493    0.2935    2.3772 H   0  0  0  0  0  0
    6.2837   -2.6121   -0.5826 H   0  0  0  0  0  0
    3.8306   -2.6767   -0.7071 H   0  0  0  0  0  0
    5.6247    1.2256    3.3847 H   0  0  0  0  0  0
    8.0910    1.2941    3.4960 H   0  0  0  0  0  0
    9.4485   -0.1442    2.0316 H   0  0  0  0  0  0
    8.3646   -1.6762    0.4256 H   0  0  0  0  0  0
  1 11  1  0  0  0
  1  2  1  0  0  0
  1 30  1  0  0  0
  2  3  1  0  0  0
  2  6  1  0  0  0
  2 31  1  0  0  0
  3  5  2  0  0  0
  3  4  1  0  0  0
  4  8  1  0  0  0
  4 32  1  0  0  0
  6  7  1  0  0  0
  6 33  1  0  0  0
  6 34  1  0  0  0
  7 21  2  0  0  0
  7 23  1  0  0  0
  8  9  1  0  0  0
  8 35  1  0  0  0
  8 36  1  0  0  0
  9 10  3  0  0  0
 11 12  1  0  0  0
 11 13  2  0  0  0
 12 14  1  0  0  0
 14 15  1  0  0  0
 14 37  1  0  0  0
 14 38  1  0  0  0
 15 16  2  0  0  0
 15 20  1  0  0  0
 16 17  1  0  0  0
 16 39  1  0  0  0
 17 18  2  0  0  0
 17 40  1  0  0  0
 18 19  1  0  0  0
 18 41  1  0  0  0
 19 20  2  0  0  0
 19 42  1  0  0  0
 20 43  1  0  0  0
 21 25  1  0  0  0
 21 44  1  0  0  0
 22 24  1  0  0  0
 22 23  2  0  0  0
 22 45  1  0  0  0
 23 46  1  0  0  0
 24 25  2  0  0  0
 24 29  1  0  0  0
 25 26  1  0  0  0
 26 27  2  0  0  0
 26 47  1  0  0  0
 27 28  1  0  0  0
 27 48  1  0  0  0
 28 29  2  0  0  0
 28 49  1  0  0  0
 29 50  1  0  0  0
M  END
> <chembl_id>
CHEMBL200954

> <chembl_pref_name>
None

> <i_m_ct_stereo_status>
1

> <s_m_source_file>
sdf/inactives_sanitized.sdf

> <i_m_source_file_index>
124

> <i_lp_mmshare_version>
49012

> <i_f3d_flags>
0

> <s_epik_input>
W2NIXTFbY0hdW2NIXVtjSF1jKGMxMilbY0hdYyhbY0hdW2NIXTIpW0NIMl1bQ0BASF0oQyg9TylbTkhdW0NIMl1DI04pW05IXUMoPU8pT1tDSDJdYzNbY0hdW2NIXVtjSF1bY0hdW2NIXTM=

> <s_epik_cmdline>
J2VwaWtfcHl0aG9uJywgJy1waHQnLCAnMC41JywgJy1waCcsICc3LjUnLCAnLW50JywgJy1tYScsICcyMDAnLCAnLWltYWUnLCAnPGluZmlsZS5tYWU+JywgJy1vbWFlJywgJzxvdXRmaWxlLm1hZT4n

> <r_lp_tautomer_probability>
1

> <r_epik_Ionization_Penalty>
  0.0000

> <r_epik_Ionization_Penalty_Charging>
  0.0000

> <r_epik_Ionization_Penalty_Neutral>
  0.0000

> <r_epik_State_Penalty>
 -0.0000

> <r_epik_Charging_Adjusted_Penalty>
0

> <i_epik_Tot_Q>
0

> <i_epik_Tot_abs_Q>
0

> <s_epik_Chemistry_Notes>
This compound has an ester and may undergo hydrolysis at high or low pH.

> <s_lp_Force_Field>
OPLS3e

> <r_lp_Energy>
36.924837

> <b_lp_Chiralities_Consistent>
1

> <s_lp_Variant>
sdf/inactives_sanitized.sdf:124-1

$$$$
sdf/inactives_sanitized.sdf:125
                    3D
 Schrodinger Suite 2020-1.
 43 43  0  0  1  0            999 V2000
   -0.3736    1.3950   -0.0178 N   0  0  0  0  0  0
    0.1386    0.0159   -0.0071 C   0  0  2  0  0  0
   -0.7095   -0.8756    0.9268 C   0  0  0  0  0  0
   -1.3296   -1.9215    0.3559 N   0  0  0  0  0  0
   -0.7563   -0.6235    2.1316 O   0  0  0  0  0  0
    1.6570   -0.0083    0.3179 C   0  0  0  0  0  0
   -2.2024   -2.8436    1.0750 C   0  0  0  0  0  0
   -3.4301   -2.1988    1.5743 C   0  0  0  0  0  0
   -4.3942   -1.6925    1.9658 N   0  0  0  0  0  0
   -1.3939    1.7838   -0.8792 C   0  0  0  0  0  0
   -1.6630    3.0870   -0.6720 O   0  0  0  0  0  0
   -1.9705    1.0668   -1.7015 O   0  0  0  0  0  0
   -2.6670    3.7532   -1.4310 C   0  0  0  0  0  0
   -2.7346    5.2217   -1.0422 C   0  0  0  0  0  0
   -3.9629    5.7881   -0.6923 C   0  0  0  0  0  0
   -4.0341    7.1351   -0.3461 C   0  0  0  0  0  0
   -2.8774    7.9118   -0.3533 C   0  0  0  0  0  0
   -1.6498    7.3546   -0.7056 C   0  0  0  0  0  0
   -1.5782    6.0079   -1.0525 C   0  0  0  0  0  0
    2.3595   -1.3978    0.3170 C   0  0  2  0  0  0
    3.8265   -1.2969    0.8066 C   0  0  0  0  0  0
    2.2700   -2.0977   -1.0577 C   0  0  0  0  0  0
    3.9017   -0.7627    2.0262 F   0  0  0  0  0  0
    4.4073   -2.4959    0.8692 F   0  0  0  0  0  0
    4.5659   -0.5395   -0.0051 F   0  0  0  0  0  0
   -0.0043    2.0569    0.6491 H   0  0  0  0  0  0
    0.0629   -0.3718   -1.0262 H   0  0  0  0  0  0
   -1.2599   -2.0467   -0.6439 H   0  0  0  0  0  0
    1.8057    0.4674    1.2893 H   0  0  0  0  0  0
    2.1731    0.6405   -0.3924 H   0  0  0  0  0  0
   -2.4962   -3.6496    0.4028 H   0  0  0  0  0  0
   -1.6761   -3.3024    1.9137 H   0  0  0  0  0  0
   -2.4514    3.6798   -2.4983 H   0  0  0  0  0  0
   -3.6332    3.2758   -1.2576 H   0  0  0  0  0  0
   -4.8619    5.1887   -0.6879 H   0  0  0  0  0  0
   -4.9819    7.5758   -0.0740 H   0  0  0  0  0  0
   -2.9332    8.9567   -0.0851 H   0  0  0  0  0  0
   -0.7584    7.9645   -0.7108 H   0  0  0  0  0  0
   -0.6265    5.5773   -1.3287 H   0  0  0  0  0  0
    1.8431   -2.0365    1.0352 H   0  0  0  0  0  0
    2.7184   -1.4906   -1.8450 H   0  0  0  0  0  0
    1.2378   -2.3007   -1.3417 H   0  0  0  0  0  0
    2.7844   -3.0592   -1.0502 H   0  0  0  0  0  0
  1 10  1  0  0  0
  1  2  1  0  0  0
  1 26  1  0  0  0
  2  3  1  0  0  0
  2  6  1  0  0  0
  2 27  1  0  0  0
  3  4  1  0  0  0
  3  5  2  0  0  0
  4  7  1  0  0  0
  4 28  1  0  0  0
  6 20  1  0  0  0
  6 29  1  0  0  0
  6 30  1  0  0  0
  7  8  1  0  0  0
  7 31  1  0  0  0
  7 32  1  0  0  0
  8  9  3  0  0  0
 10 11  1  0  0  0
 10 12  2  0  0  0
 11 13  1  0  0  0
 13 14  1  0  0  0
 13 33  1  0  0  0
 13 34  1  0  0  0
 14 15  2  0  0  0
 14 19  1  0  0  0
 15 16  1  0  0  0
 15 35  1  0  0  0
 16 17  2  0  0  0
 16 36  1  0  0  0
 17 18  1  0  0  0
 17 37  1  0  0  0
 18 19  2  0  0  0
 18 38  1  0  0  0
 19 39  1  0  0  0
 20 21  1  0  0  0
 20 22  1  0  0  0
 20 40  1  0  0  0
 21 23  1  0  0  0
 21 24  1  0  0  0
 21 25  1  0  0  0
 22 41  1  0  0  0
 22 42  1  0  0  0
 22 43  1  0  0  0
M  END
> <chembl_id>
CHEMBL372977

> <chembl_pref_name>
None

> <i_m_ct_stereo_status>
1

> <s_m_source_file>
sdf/inactives_sanitized.sdf

> <i_m_source_file_index>
125

> <i_lp_mmshare_version>
49012

> <i_f3d_flags>
0

> <s_epik_input>
TiNDW0NIMl1bTkhdQyg9TylbQ0BIXShbQ0gyXVtDQEhdKEMoRikoRilGKVtDSDNdKVtOSF1DKD1PKU9bQ0gyXWMxW2NIXVtjSF1bY0hdW2NIXVtjSF0x

> <s_epik_cmdline>
J2VwaWtfcHl0aG9uJywgJy1waHQnLCAnMC41JywgJy1waCcsICc3LjUnLCAnLW50JywgJy1tYScsICcyMDAnLCAnLWltYWUnLCAnPGluZmlsZS5tYWU+JywgJy1vbWFlJywgJzxvdXRmaWxlLm1hZT4n

> <r_lp_tautomer_probability>
1

> <r_epik_Ionization_Penalty>
  0.0000

> <r_epik_Ionization_Penalty_Charging>
  0.0000

> <r_epik_Ionization_Penalty_Neutral>
  0.0000

> <r_epik_State_Penalty>
 -0.0000

> <r_epik_Charging_Adjusted_Penalty>
0

> <i_epik_Tot_Q>
0

> <i_epik_Tot_abs_Q>
0

> <s_epik_Chemistry_Notes>
This compound has an ester and may undergo hydrolysis at high or low pH.

> <s_lp_Force_Field>
OPLS3e

> <r_lp_Energy>
20.300804

> <b_lp_Chiralities_Consistent>
1

> <s_lp_Variant>
sdf/inactives_sanitized.sdf:125-1

$$$$
sdf/inactives_sanitized.sdf:126
                    3D
 Schrodinger Suite 2020-1.
 43 43  0  0  1  0            999 V2000
    0.0483   -0.0677    0.2111 N   0  0  0  0  0  0
    1.5212   -0.1440    0.2577 C   0  0  2  0  0  0
    2.0837   -0.5443   -1.1311 C   0  0  0  0  0  0
    3.0337    0.2553   -1.6442 N   0  0  0  0  0  0
    1.6766   -1.5641   -1.6891 O   0  0  0  0  0  0
    2.0496   -0.9918    1.4767 C   0  0  0  0  0  0
    3.6463    0.0588   -2.9538 C   0  0  0  0  0  0
    2.6924    0.2303   -4.0643 C   0  0  0  0  0  0
    1.9438    0.3653   -4.9362 N   0  0  0  0  0  0
   -0.6097    1.0904   -0.1886 C   0  0  0  0  0  0
   -1.9372    0.8682   -0.1491 O   0  0  0  0  0  0
   -0.0824    2.1524   -0.5300 O   0  0  0  0  0  0
   -2.8585    1.8908   -0.5078 C   0  0  0  0  0  0
   -4.2767    1.3756   -0.3440 C   0  0  0  0  0  0
   -4.8177    1.2249    0.9354 C   0  0  0  0  0  0
   -6.1184    0.7511    1.0867 C   0  0  0  0  0  0
   -6.8720    0.4319   -0.0411 C   0  0  0  0  0  0
   -6.3371    0.5816   -1.3192 C   0  0  0  0  0  0
   -5.0363    1.0550   -1.4716 C   0  0  0  0  0  0
    1.5312   -0.3843    2.8069 C   0  0  0  0  0  0
    3.6000   -0.9929    1.5396 C   0  0  0  0  0  0
    1.5584   -2.4624    1.4124 C   0  0  0  0  0  0
   -0.4865   -0.8997    0.4131 H   0  0  0  0  0  0
    1.8981    0.8607    0.4724 H   0  0  0  0  0  0
    3.2989    1.0880   -1.1382 H   0  0  0  0  0  0
    4.4452    0.7889   -3.0825 H   0  0  0  0  0  0
    4.1014   -0.9305   -3.0254 H   0  0  0  0  0  0
   -2.7213    2.7714    0.1224 H   0  0  0  0  0  0
   -2.6930    2.2074   -1.5392 H   0  0  0  0  0  0
   -4.2319    1.4716    1.8092 H   0  0  0  0  0  0
   -6.5412    0.6316    2.0734 H   0  0  0  0  0  0
   -7.8809    0.0644    0.0768 H   0  0  0  0  0  0
   -6.9286    0.3315   -2.1876 H   0  0  0  0  0  0
   -4.6219    1.1693   -2.4629 H   0  0  0  0  0  0
    1.9069   -0.9332    3.6719 H   0  0  0  0  0  0
    0.4427   -0.4074    2.8725 H   0  0  0  0  0  0
    1.8487    0.6526    2.9259 H   0  0  0  0  0  0
    4.0001    0.0194    1.6114 H   0  0  0  0  0  0
    4.0472   -1.4677    0.6656 H   0  0  0  0  0  0
    3.9638   -1.5429    2.4089 H   0  0  0  0  0  0
    1.9112   -3.0355    2.2711 H   0  0  0  0  0  0
    1.9234   -2.9800    0.5254 H   0  0  0  0  0  0
    0.4698   -2.5299    1.4146 H   0  0  0  0  0  0
  1  2  1  0  0  0
  1 10  1  0  0  0
  1 23  1  0  0  0
  2  6  1  0  0  0
  2  3  1  0  0  0
  2 24  1  0  0  0
  3  4  1  0  0  0
  3  5  2  0  0  0
  4  7  1  0  0  0
  4 25  1  0  0  0
  6 20  1  0  0  0
  6 21  1  0  0  0
  6 22  1  0  0  0
  7  8  1  0  0  0
  7 26  1  0  0  0
  7 27  1  0  0  0
  8  9  3  0  0  0
 10 12  2  0  0  0
 10 11  1  0  0  0
 11 13  1  0  0  0
 13 14  1  0  0  0
 13 28  1  0  0  0
 13 29  1  0  0  0
 14 15  2  0  0  0
 14 19  1  0  0  0
 15 16  1  0  0  0
 15 30  1  0  0  0
 16 17  2  0  0  0
 16 31  1  0  0  0
 17 18  1  0  0  0
 17 32  1  0  0  0
 18 19  2  0  0  0
 18 33  1  0  0  0
 19 34  1  0  0  0
 20 35  1  0  0  0
 20 36  1  0  0  0
 20 37  1  0  0  0
 21 38  1  0  0  0
 21 39  1  0  0  0
 21 40  1  0  0  0
 22 41  1  0  0  0
 22 42  1  0  0  0
 22 43  1  0  0  0
M  END
> <chembl_id>
CHEMBL199483

> <chembl_pref_name>
None

> <i_m_ct_stereo_status>
1

> <s_m_source_file>
sdf/inactives_sanitized.sdf

> <i_m_source_file_index>
126

> <i_lp_mmshare_version>
49012

> <i_f3d_flags>
0

> <s_epik_input>
TiNDW0NIMl1bTkhdQyg9TylbQ0BIXShDKFtDSDNdKShbQ0gzXSlbQ0gzXSlbTkhdQyg9TylPW0NIMl1jMVtjSF1bY0hdW2NIXVtjSF1bY0hdMQ==

> <s_epik_cmdline>
J2VwaWtfcHl0aG9uJywgJy1waHQnLCAnMC41JywgJy1waCcsICc3LjUnLCAnLW50JywgJy1tYScsICcyMDAnLCAnLWltYWUnLCAnPGluZmlsZS5tYWU+JywgJy1vbWFlJywgJzxvdXRmaWxlLm1hZT4n

> <r_lp_tautomer_probability>
1

> <r_epik_Ionization_Penalty>
  0.0000

> <r_epik_Ionization_Penalty_Charging>
  0.0000

> <r_epik_Ionization_Penalty_Neutral>
  0.0000

> <r_epik_State_Penalty>
 -0.0000

> <r_epik_Charging_Adjusted_Penalty>
0

> <i_epik_Tot_Q>
0

> <i_epik_Tot_abs_Q>
0

> <s_epik_Chemistry_Notes>
This compound has an ester and may undergo hydrolysis at high or low pH.

> <s_lp_Force_Field>
OPLS3e

> <r_lp_Energy>
21.279662

> <b_lp_Chiralities_Consistent>
1

> <s_lp_Variant>
sdf/inactives_sanitized.sdf:126-1

$$$$
sdf/inactives_sanitized.sdf:127
                    3D
 Schrodinger Suite 2020-1.
 45 47  0  0  1  0            999 V2000
   -0.0277   -2.3205   -0.8609 C   0  0  0  0  0  0
   -0.5515   -0.8793   -1.0489 C   0  0  0  0  0  0
   -0.0688    0.0858    0.0912 C   0  0  0  0  0  0
   -0.6115   -0.5264    1.4219 C   0  0  0  0  0  0
   -0.0943   -1.9611    1.6729 C   0  0  0  0  0  0
   -0.4517   -2.9002    0.5036 C   0  0  0  0  0  0
    1.4049    0.2226    0.1482 N   0  0  0  0  0  0
   -0.7872    1.4813   -0.0060 C   0  0  0  0  0  0
   -1.9739    1.5686   -0.6381 N   0  0  0  0  0  0
   -0.2845    2.4661    0.5409 O   0  0  0  0  0  0
   -2.7370    2.8016   -0.8127 C   0  0  0  0  0  0
   -2.0576    3.7760   -1.6847 C   0  0  0  0  0  0
   -1.5248    4.5409   -2.3699 N   0  0  0  0  0  0
    2.2256    0.8027   -0.7596 C   0  0  0  0  0  0
    3.6449    0.7642   -0.4513 C   0  0  0  0  0  0
    1.8194    1.3577   -1.7824 O   0  0  0  0  0  0
    4.0973    0.1215    0.6200 N   0  0  0  0  0  0
    5.4037    0.1731    0.7458 C   0  0  0  0  0  0
    6.1980    1.0692   -0.5173 S   0  0  0  0  0  0
    4.6414    1.3610   -1.2281 C   0  0  0  0  0  0
    6.1619   -0.4660    1.8729 C   0  0  0  0  0  0
    5.4762   -1.0112    2.9705 C   0  0  0  0  0  0
    6.2031   -1.6046    4.0039 C   0  0  0  0  0  0
    7.5568   -1.6843    4.0020 N   0  0  0  0  0  0
    8.2158   -1.1579    2.9399 C   0  0  0  0  0  0
    7.5634   -0.5475    1.8672 C   0  0  0  0  0  0
   -0.3975   -2.9589   -1.6642 H   0  0  0  0  0  0
    1.0603   -2.3338   -0.9419 H   0  0  0  0  0  0
   -0.1464   -0.5325   -2.0009 H   0  0  0  0  0  0
   -1.6341   -0.8828   -1.1848 H   0  0  0  0  0  0
   -0.2449    0.0697    2.2610 H   0  0  0  0  0  0
   -1.7002   -0.4727    1.4999 H   0  0  0  0  0  0
    0.9878   -1.9488    1.8127 H   0  0  0  0  0  0
   -0.5137   -2.3505    2.6012 H   0  0  0  0  0  0
   -1.5288   -3.0737    0.4997 H   0  0  0  0  0  0
    0.0121   -3.8759    0.6542 H   0  0  0  0  0  0
    1.8550   -0.4681    0.7311 H   0  0  0  0  0  0
   -2.3372    0.7469   -1.0987 H   0  0  0  0  0  0
   -3.6997    2.5612   -1.2634 H   0  0  0  0  0  0
   -2.9426    3.2710    0.1506 H   0  0  0  0  0  0
    4.5399    1.9326   -2.1397 H   0  0  0  0  0  0
    4.3980   -0.9774    3.0295 H   0  0  0  0  0  0
    5.6971   -2.0296    4.8580 H   0  0  0  0  0  0
    9.2931   -1.2338    2.9570 H   0  0  0  0  0  0
    8.1484   -0.1526    1.0502 H   0  0  0  0  0  0
  1  2  1  0  0  0
  1  6  1  0  0  0
  1 27  1  0  0  0
  1 28  1  0  0  0
  2  3  1  0  0  0
  2 29  1  0  0  0
  2 30  1  0  0  0
  3  7  1  0  0  0
  3  8  1  0  0  0
  3  4  1  0  0  0
  4  5  1  0  0  0
  4 31  1  0  0  0
  4 32  1  0  0  0
  5  6  1  0  0  0
  5 33  1  0  0  0
  5 34  1  0  0  0
  6 35  1  0  0  0
  6 36  1  0  0  0
  7 14  1  0  0  0
  7 37  1  0  0  0
  8  9  1  0  0  0
  8 10  2  0  0  0
  9 11  1  0  0  0
  9 38  1  0  0  0
 11 12  1  0  0  0
 11 39  1  0  0  0
 11 40  1  0  0  0
 12 13  3  0  0  0
 14 15  1  0  0  0
 14 16  2  0  0  0
 15 17  1  0  0  0
 15 20  2  0  0  0
 17 18  2  0  0  0
 18 19  1  0  0  0
 18 21  1  0  0  0
 19 20  1  0  0  0
 20 41  1  0  0  0
 21 22  2  0  0  0
 21 26  1  0  0  0
 22 23  1  0  0  0
 22 42  1  0  0  0
 23 24  2  0  0  0
 23 43  1  0  0  0
 24 25  1  0  0  0
 25 26  2  0  0  0
 25 44  1  0  0  0
 26 45  1  0  0  0
M  END
> <chembl_id>
CHEMBL371771

> <chembl_pref_name>
None

> <s_m_source_file>
sdf/inactives_sanitized.sdf

> <i_m_source_file_index>
127

> <i_lp_mmshare_version>
49012

> <i_m_ct_stereo_status>
1

> <i_f3d_flags>
0

> <s_epik_input>
W0NIMl0xW0NIMl1bQ0gyXVtDSDJdW0NIMl1DMShDKD1PKVtOSF1bQ0gyXUMjTilbTkhdQyg9TyljMm5jKHNbY0hdMiktYzNbY0hdW2NIXW5bY0hdW2NIXTM=

> <s_epik_cmdline>
J2VwaWtfcHl0aG9uJywgJy1waHQnLCAnMC41JywgJy1waCcsICc3LjUnLCAnLW50JywgJy1tYScsICcyMDAnLCAnLWltYWUnLCAnPGluZmlsZS5tYWU+JywgJy1vbWFlJywgJzxvdXRmaWxlLm1hZT4n

> <r_lp_tautomer_probability>
1

> <r_epik_Ionization_Penalty>
  0.0000

> <r_epik_Ionization_Penalty_Charging>
  0.0000

> <r_epik_Ionization_Penalty_Neutral>
  0.0000

> <r_epik_State_Penalty>
 -0.0000

> <r_epik_Charging_Adjusted_Penalty>
0

> <i_epik_Tot_Q>
0

> <i_epik_Tot_abs_Q>
0

> <s_lp_Force_Field>
OPLS3e

> <r_lp_Energy>
37.728938

> <b_lp_Chiralities_Consistent>
1

> <s_lp_Variant>
sdf/inactives_sanitized.sdf:127-1

$$$$
sdf/inactives_sanitized.sdf:128
                    3D
 Schrodinger Suite 2020-1.
 53 55  0  0  1  0            999 V2000
   -2.0176   -0.8502   -1.3723 C   0  0  0  0  0  0
   -0.4842   -0.6699   -1.2751 C   0  0  0  0  0  0
    0.0114    0.1161   -0.0144 C   0  0  0  0  0  0
   -0.5956   -0.6261    1.2251 C   0  0  0  0  0  0
   -2.1308   -0.8183    1.1868 C   0  0  0  0  0  0
   -2.5827   -1.5247   -0.1068 C   0  0  0  0  0  0
    1.4911    0.1190    0.0025 N   0  0  0  0  0  0
   -0.5330    1.5913   -0.0731 C   0  0  0  0  0  0
   -0.8486    2.1882    0.9588 O   0  0  0  0  0  0
   -0.4814    2.2327   -1.2570 N   0  0  0  0  0  0
   -0.9121    3.6108   -1.4760 C   0  0  0  0  0  0
   -2.3601    3.7938   -1.2714 C   0  0  0  0  0  0
   -3.4972    3.9366   -1.1112 N   0  0  0  0  0  0
    2.3371    0.7061    0.8806 C   0  0  0  0  0  0
    3.8183    0.4930    0.6378 C   0  0  0  0  0  0
    1.9510    1.3996    1.8233 O   0  0  0  0  0  0
    4.7549    1.2231    1.3828 C   0  0  0  0  0  0
    6.1199    1.0458    1.1780 C   0  0  0  0  0  0
    6.5783    0.1252    0.2294 C   0  0  0  0  0  0
    5.6525   -0.5978   -0.5233 C   0  0  0  0  0  0
    4.2864   -0.4216   -0.3201 C   0  0  0  0  0  0
    7.9295   -0.0581   -0.0174 N   0  0  0  0  0  0
    8.6058    1.0324   -0.7389 C   0  0  0  0  0  0
   10.0332    0.6360   -1.1771 C   0  0  0  0  0  0
   10.7996    0.2617   -0.0391 O   0  0  0  0  0  0
   10.2069   -0.8108    0.6825 C   0  0  0  0  0  0
    8.7840   -0.4104    1.1294 C   0  0  0  0  0  0
   -2.5039    0.1147   -1.5210 H   0  0  0  0  0  0
   -2.2648   -1.4487   -2.2498 H   0  0  0  0  0  0
    0.0263   -1.6339   -1.3199 H   0  0  0  0  0  0
   -0.1047   -0.2051   -2.1869 H   0  0  0  0  0  0
   -0.0865   -1.5830    1.3517 H   0  0  0  0  0  0
   -0.3066   -0.1178    2.1466 H   0  0  0  0  0  0
   -2.4517   -1.3962    2.0541 H   0  0  0  0  0  0
   -2.6334    0.1459    1.2693 H   0  0  0  0  0  0
   -3.6721   -1.5517   -0.1544 H   0  0  0  0  0  0
   -2.2554   -2.5651   -0.0788 H   0  0  0  0  0  0
    1.9032   -0.6257   -0.5395 H   0  0  0  0  0  0
   -0.1985    1.7146   -2.0758 H   0  0  0  0  0  0
   -0.3705    4.2951   -0.8210 H   0  0  0  0  0  0
   -0.6781    3.8959   -2.5018 H   0  0  0  0  0  0
    4.4368    1.9412    2.1257 H   0  0  0  0  0  0
    6.8189    1.6297    1.7590 H   0  0  0  0  0  0
    5.9894   -1.3035   -1.2694 H   0  0  0  0  0  0
    3.6050   -1.0081   -0.9194 H   0  0  0  0  0  0
    8.0262    1.2785   -1.6300 H   0  0  0  0  0  0
    8.6300    1.9355   -0.1261 H   0  0  0  0  0  0
   10.0117   -0.1749   -1.9077 H   0  0  0  0  0  0
   10.5216    1.4813   -1.6621 H   0  0  0  0  0  0
   10.1906   -1.7190    0.0767 H   0  0  0  0  0  0
   10.8247   -1.0266    1.5544 H   0  0  0  0  0  0
    8.8293    0.4142    1.8429 H   0  0  0  0  0  0
    8.3337   -1.2527    1.6568 H   0  0  0  0  0  0
  1  2  1  0  0  0
  1  6  1  0  0  0
  1 28  1  0  0  0
  1 29  1  0  0  0
  2  3  1  0  0  0
  2 30  1  0  0  0
  2 31  1  0  0  0
  3  7  1  0  0  0
  3  8  1  0  0  0
  3  4  1  0  0  0
  4  5  1  0  0  0
  4 32  1  0  0  0
  4 33  1  0  0  0
  5  6  1  0  0  0
  5 34  1  0  0  0
  5 35  1  0  0  0
  6 36  1  0  0  0
  6 37  1  0  0  0
  7 14  1  0  0  0
  7 38  1  0  0  0
  8  9  2  0  0  0
  8 10  1  0  0  0
 10 11  1  0  0  0
 10 39  1  0  0  0
 11 12  1  0  0  0
 11 40  1  0  0  0
 11 41  1  0  0  0
 12 13  3  0  0  0
 14 15  1  0  0  0
 14 16  2  0  0  0
 15 17  2  0  0  0
 15 21  1  0  0  0
 17 18  1  0  0  0
 17 42  1  0  0  0
 18 19  2  0  0  0
 18 43  1  0  0  0
 19 20  1  0  0  0
 19 22  1  0  0  0
 20 21  2  0  0  0
 20 44  1  0  0  0
 21 45  1  0  0  0
 22 23  1  0  0  0
 22 27  1  0  0  0
 23 24  1  0  0  0
 23 46  1  0  0  0
 23 47  1  0  0  0
 24 25  1  0  0  0
 24 48  1  0  0  0
 24 49  1  0  0  0
 25 26  1  0  0  0
 26 27  1  0  0  0
 26 50  1  0  0  0
 26 51  1  0  0  0
 27 52  1  0  0  0
 27 53  1  0  0  0
M  END
> <chembl_id>
CHEMBL200301

> <chembl_pref_name>
None

> <s_m_source_file>
sdf/inactives_sanitized.sdf

> <i_m_source_file_index>
128

> <i_lp_mmshare_version>
49012

> <i_m_ct_stereo_status>
1

> <i_f3d_flags>
0

> <s_epik_input>
W0NIMl0xW0NIMl1bQ0gyXVtDSDJdW0NIMl1DMShDKD1PKVtOSF1bQ0gyXUMjTilbTkhdQyg9TyljMltjSF1bY0hdYyhbY0hdW2NIXTIpTjNbQ0gyXVtDSDJdT1tDSDJdW0NIMl0z

> <s_epik_cmdline>
J2VwaWtfcHl0aG9uJywgJy1waHQnLCAnMC41JywgJy1waCcsICc3LjUnLCAnLW50JywgJy1tYScsICcyMDAnLCAnLWltYWUnLCAnPGluZmlsZS5tYWU+JywgJy1vbWFlJywgJzxvdXRmaWxlLm1hZT4n

> <r_lp_tautomer_probability>
1

> <r_epik_Ionization_Penalty>
  0.0000

> <r_epik_Ionization_Penalty_Charging>
  0.0000

> <r_epik_Ionization_Penalty_Neutral>
  0.0000

> <r_epik_State_Penalty>
 -0.0000

> <r_epik_Charging_Adjusted_Penalty>
0

> <i_epik_Tot_Q>
0

> <i_epik_Tot_abs_Q>
0

> <s_lp_Force_Field>
OPLS3e

> <r_lp_Energy>
46.252621

> <b_lp_Chiralities_Consistent>
1

> <s_lp_Variant>
sdf/inactives_sanitized.sdf:128-1

$$$$
sdf/inactives_sanitized.sdf:129
                    3D
 Schrodinger Suite 2020-1.
 60 61  0  0  1  0            999 V2000
   -0.7471   -0.3691   -2.5864 C   0  0  0  0  0  0
   -0.4956   -0.8372   -1.3469 N   0  0  0  0  0  0
    0.0541   -0.0590   -0.2293 C   0  0  2  0  0  0
    1.5400    0.3023   -0.4611 C   0  0  0  0  0  0
   -1.2937   -1.3664   -3.5852 C   0  0  0  0  0  0
   -0.5714    0.8094   -2.9052 O   0  0  0  0  0  0
   -1.1597   -2.7532   -3.3941 C   0  0  0  0  0  0
    2.3066   -0.5131   -0.9781 O   0  0  0  0  0  0
   -0.1586   -0.8700    1.0796 C   0  0  0  0  0  0
    1.9164    1.5148   -0.0264 N   0  0  0  0  0  0
    3.3715    4.1676    3.0831 C   0  0  0  0  0  0
    3.2682    3.1036    2.1704 N   0  0  0  0  0  0
    3.5760    6.1971    5.0110 C   0  0  0  0  0  0
   -1.6646   -3.6595   -4.3308 C   0  0  0  0  0  0
    3.4375    5.5104    2.6892 C   0  0  0  0  0  0
    3.4040    3.8505    4.4416 C   0  0  0  0  0  0
    3.5074    4.8582    5.3964 C   0  0  0  0  0  0
    3.5392    6.5177    3.6453 C   0  0  0  0  0  0
    3.6769    7.1277    6.0275 O   0  0  0  0  0  0
   -1.9392   -0.9119   -4.7454 C   0  0  0  0  0  0
   -2.4412   -1.8134   -5.6833 C   0  0  0  0  0  0
    0.2038   -0.1438    2.4009 C   0  0  0  0  0  0
    3.2816    2.0258   -0.0943 C   0  0  0  0  0  0
    3.4630    3.3065    0.7370 C   0  0  0  0  0  0
   -2.3046   -3.1843   -5.4773 C   0  0  0  0  0  0
   -1.5001   -5.1514   -4.1054 C   0  0  0  0  0  0
    3.7494    8.5110    5.6982 C   0  0  0  0  0  0
    0.0603   -1.0933    3.6100 C   0  0  0  0  0  0
   -0.5799    1.1726    2.5950 C   0  0  0  0  0  0
   -0.6669   -1.8129   -1.1537 H   0  0  0  0  0  0
   -0.5354    0.8585   -0.1783 H   0  0  0  0  0  0
   -0.6576   -3.1433   -2.5199 H   0  0  0  0  0  0
   -1.2058   -1.1720    1.1449 H   0  0  0  0  0  0
    0.4144   -1.7980    1.0208 H   0  0  0  0  0  0
    1.2258    2.1240    0.3883 H   0  0  0  0  0  0
    3.4632    2.1801    2.5301 H   0  0  0  0  0  0
    3.4128    5.7927    1.6476 H   0  0  0  0  0  0
    3.3509    2.8207    4.7661 H   0  0  0  0  0  0
    3.5341    4.5973    6.4444 H   0  0  0  0  0  0
    3.5885    7.5414    3.3065 H   0  0  0  0  0  0
   -2.0597    0.1460   -4.9321 H   0  0  0  0  0  0
   -2.9353   -1.4478   -6.5715 H   0  0  0  0  0  0
    1.2614    0.1182    2.3538 H   0  0  0  0  0  0
    3.9729    1.2632    0.2719 H   0  0  0  0  0  0
    3.5486    2.2195   -1.1344 H   0  0  0  0  0  0
    2.8064    4.0964    0.3696 H   0  0  0  0  0  0
    4.4760    3.6854    0.5945 H   0  0  0  0  0  0
   -2.6958   -3.8736   -6.2114 H   0  0  0  0  0  0
   -1.7323   -5.7285   -5.0014 H   0  0  0  0  0  0
   -2.1420   -5.4849   -3.2896 H   0  0  0  0  0  0
   -0.4695   -5.3780   -3.8292 H   0  0  0  0  0  0
    3.8230    9.0960    6.6149 H   0  0  0  0  0  0
    2.8564    8.8428    5.1663 H   0  0  0  0  0  0
    4.6301    8.7329    5.0936 H   0  0  0  0  0  0
   -0.7345   -0.7917    4.2922 H   0  0  0  0  0  0
    0.9856   -1.1279    4.1857 H   0  0  0  0  0  0
   -0.1629   -2.1156    3.3031 H   0  0  0  0  0  0
   -0.9544    1.2945    3.6113 H   0  0  0  0  0  0
   -1.4411    1.2387    1.9297 H   0  0  0  0  0  0
    0.0588    2.0327    2.3900 H   0  0  0  0  0  0
  1  2  1  0  0  0
  1  5  1  0  0  0
  1  6  2  0  0  0
  2  3  1  0  0  0
  2 30  1  0  0  0
  3  4  1  0  0  0
  3  9  1  0  0  0
  3 31  1  0  0  0
  4  8  2  0  0  0
  4 10  1  0  0  0
  5  7  2  0  0  0
  5 20  1  0  0  0
  7 14  1  0  0  0
  7 32  1  0  0  0
  9 22  1  0  0  0
  9 33  1  0  0  0
  9 34  1  0  0  0
 10 23  1  0  0  0
 10 35  1  0  0  0
 11 12  1  0  0  0
 11 15  1  0  0  0
 11 16  2  0  0  0
 12 24  1  0  0  0
 12 36  1  0  0  0
 13 17  2  0  0  0
 13 19  1  0  0  0
 13 18  1  0  0  0
 14 26  1  0  0  0
 14 25  2  0  0  0
 15 18  2  0  0  0
 15 37  1  0  0  0
 16 17  1  0  0  0
 16 38  1  0  0  0
 17 39  1  0  0  0
 18 40  1  0  0  0
 19 27  1  0  0  0
 20 21  2  0  0  0
 20 41  1  0  0  0
 21 25  1  0  0  0
 21 42  1  0  0  0
 22 28  1  0  0  0
 22 29  1  0  0  0
 22 43  1  0  0  0
 23 24  1  0  0  0
 23 44  1  0  0  0
 23 45  1  0  0  0
 24 46  1  0  0  0
 24 47  1  0  0  0
 25 48  1  0  0  0
 26 49  1  0  0  0
 26 50  1  0  0  0
 26 51  1  0  0  0
 27 52  1  0  0  0
 27 53  1  0  0  0
 27 54  1  0  0  0
 28 55  1  0  0  0
 28 56  1  0  0  0
 28 57  1  0  0  0
 29 58  1  0  0  0
 29 59  1  0  0  0
 29 60  1  0  0  0
M  END
> <chembl_id>
CHEMBL64765

> <chembl_pref_name>
None

> <i_m_ct_stereo_status>
1

> <s_m_source_file>
sdf/inactives_sanitized.sdf

> <i_m_source_file_index>
129

> <i_lp_mmshare_version>
49012

> <i_f3d_flags>
0

> <s_epik_input>
W2NIXTFbY0hdW2NIXWMoW0NIM10pW2NIXWMxQyg9TylbTkhdW0NAQEhdKFtDSDJdW0NIXShbQ0gzXSlbQ0gzXSlDKD1PKVtOSF1bQ0gyXVtDSDJdW05IXWMyW2NIXVtjSF1jKFtjSF1bY0hdMilPW0NIM10=

> <s_epik_cmdline>
J2VwaWtfcHl0aG9uJywgJy1waHQnLCAnMC41JywgJy1waCcsICc3LjUnLCAnLW50JywgJy1tYScsICcyMDAnLCAnLWltYWUnLCAnPGluZmlsZS5tYWU+JywgJy1vbWFlJywgJzxvdXRmaWxlLm1hZT4n

> <r_lp_tautomer_probability>
1

> <r_epik_Ionization_Penalty>
  0.0017

> <r_epik_Ionization_Penalty_Charging>
  0.0000

> <r_epik_Ionization_Penalty_Neutral>
  0.0017

> <r_epik_State_Penalty>
 -0.0000

> <r_epik_Charging_Adjusted_Penalty>
0

> <i_epik_Tot_Q>
0

> <i_epik_Tot_abs_Q>
0

> <s_lp_Force_Field>
OPLS3e

> <r_lp_Energy>
27.096282

> <b_lp_Chiralities_Consistent>
1

> <s_lp_Variant>
sdf/inactives_sanitized.sdf:129-1

$$$$
sdf/inactives_sanitized.sdf:130
                    3D
 Schrodinger Suite 2020-1.
 55 58  0  0  1  0            999 V2000
   -3.4152    2.9156   -0.3633 C   0  0  0  0  0  0
   -3.0639    2.0290    0.8159 C   0  0  0  0  0  0
   -2.3190    0.8310    0.2146 C   0  0  1  0  0  0
   -3.0186    0.6929   -1.0943 N   0  0  2  0  0  0
   -3.6693    1.9643   -1.5409 C   0  0  0  0  0  0
   -0.8202    1.0807   -0.0734 C   0  0  0  0  0  0
   -0.0213   -0.0030   -0.0001 N   0  0  0  0  0  0
   -0.4082    2.1807   -0.4454 O   0  0  0  0  0  0
   -3.8108   -0.8413   -1.4592 S   0  0  0  0  0  0
   -4.1473   -0.7886   -3.2300 C   0  0  0  0  0  0
   -2.8380   -1.9153   -1.2258 O   0  0  0  0  0  0
   -5.0937   -0.8490   -0.7461 O   0  0  0  0  0  0
    1.4206   -0.0549   -0.2841 C   0  0  2  0  0  0
    1.6148    0.0687   -1.7839 C   0  0  0  0  0  0
    1.9844   -1.4033    0.2316 C   0  0  0  0  0  0
    3.4969   -1.4659    0.3722 C   0  0  0  0  0  0
    4.2984   -1.9102   -0.7014 C   0  0  0  0  0  0
    5.6827   -1.8726   -0.5966 C   0  0  0  0  0  0
    6.2845   -1.3727    0.5514 C   0  0  0  0  0  0
    5.5086   -0.8938    1.5997 C   0  0  0  0  0  0
    4.1229   -0.9224    1.5141 C   0  0  0  0  0  0
    2.4814    0.7844   -2.2822 O   0  0  0  0  0  0
   -5.4810   -0.7814   -3.6467 C   0  0  0  0  0  0
   -5.8151   -0.7664   -4.9937 C   0  0  0  0  0  0
   -4.8244   -0.7581   -5.9665 C   0  0  0  0  0  0
   -3.1006   -0.7661   -4.2101 C   0  0  0  0  0  0
   -3.4583   -0.7557   -5.5979 C   0  0  0  0  0  0
   -2.4409   -0.7393   -6.5849 C   0  0  0  0  0  0
   -1.1007   -0.7238   -6.2158 C   0  0  0  0  0  0
   -0.7414   -0.7204   -4.8750 C   0  0  0  0  0  0
   -1.7148   -0.7395   -3.8804 C   0  0  0  0  0  0
   -2.5863    3.5882   -0.5895 H   0  0  0  0  0  0
   -4.2779    3.5492   -0.1538 H   0  0  0  0  0  0
   -3.9757    1.6880    1.3098 H   0  0  0  0  0  0
   -2.4747    2.5670    1.5607 H   0  0  0  0  0  0
   -2.4078   -0.0693    0.8263 H   0  0  0  0  0  0
   -3.1757    2.4109   -2.4050 H   0  0  0  0  0  0
   -4.7539    1.8672   -1.6135 H   0  0  0  0  0  0
   -0.4363   -0.8859    0.2616 H   0  0  0  0  0  0
    1.9315    0.7512    0.2477 H   0  0  0  0  0  0
    0.9599   -0.5537   -2.3928 H   0  0  0  0  0  0
    1.6390   -2.2361   -0.3851 H   0  0  0  0  0  0
    1.5644   -1.6136    1.2172 H   0  0  0  0  0  0
    3.8393   -2.2817   -1.6058 H   0  0  0  0  0  0
    6.2936   -2.2255   -1.4145 H   0  0  0  0  0  0
    7.3617   -1.3439    0.6240 H   0  0  0  0  0  0
    5.9847   -0.4893    2.4806 H   0  0  0  0  0  0
    3.5277   -0.5296    2.3254 H   0  0  0  0  0  0
   -6.2822   -0.7943   -2.9228 H   0  0  0  0  0  0
   -6.8545   -0.7656   -5.2869 H   0  0  0  0  0  0
   -5.0958   -0.7492   -7.0125 H   0  0  0  0  0  0
   -2.7113   -0.7357   -7.6312 H   0  0  0  0  0  0
   -0.3335   -0.7097   -6.9761 H   0  0  0  0  0  0
    0.3038   -0.7005   -4.6045 H   0  0  0  0  0  0
   -1.3965   -0.7252   -2.8504 H   0  0  0  0  0  0
  1  5  1  0  0  0
  1  2  1  0  0  0
  1 32  1  0  0  0
  1 33  1  0  0  0
  2  3  1  0  0  0
  2 34  1  0  0  0
  2 35  1  0  0  0
  3  4  1  0  0  0
  3  6  1  0  0  0
  3 36  1  0  0  0
  4  9  1  0  0  0
  4  5  1  0  0  0
  5 37  1  0  0  0
  5 38  1  0  0  0
  6  8  2  0  0  0
  6  7  1  0  0  0
  7 13  1  0  0  0
  7 39  1  0  0  0
  9 10  1  0  0  0
  9 11  2  0  0  0
  9 12  2  0  0  0
 10 23  2  0  0  0
 10 26  1  0  0  0
 13 14  1  0  0  0
 13 15  1  0  0  0
 13 40  1  0  0  0
 14 22  2  0  0  0
 14 41  1  0  0  0
 15 16  1  0  0  0
 15 42  1  0  0  0
 15 43  1  0  0  0
 16 17  2  0  0  0
 16 21  1  0  0  0
 17 18  1  0  0  0
 17 44  1  0  0  0
 18 19  2  0  0  0
 18 45  1  0  0  0
 19 20  1  0  0  0
 19 46  1  0  0  0
 20 21  2  0  0  0
 20 47  1  0  0  0
 21 48  1  0  0  0
 23 24  1  0  0  0
 23 49  1  0  0  0
 24 25  2  0  0  0
 24 50  1  0  0  0
 25 27  1  0  0  0
 25 51  1  0  0  0
 26 27  2  0  0  0
 26 31  1  0  0  0
 27 28  1  0  0  0
 28 29  2  0  0  0
 28 52  1  0  0  0
 29 30  1  0  0  0
 29 53  1  0  0  0
 30 31  2  0  0  0
 30 54  1  0  0  0
 31 55  1  0  0  0
M  END
> <chembl_id>
CHEMBL378573

> <chembl_pref_name>
None

> <i_m_ct_stereo_status>
1

> <s_m_source_file>
sdf/inactives_sanitized.sdf

> <i_m_source_file_index>
130

> <i_lp_mmshare_version>
49012

> <i_f3d_flags>
0

> <s_epik_input>
W2NIXTFbY0hdW2NIXVtjSF1jKGMxMilbY0hdW2NIXVtjSF1jMlMoPU8pKD1PKU4zW0NIMl1bQ0gyXVtDSDJdW0NAQEhdM0MoPU8pW05IXVtDQEhdKFtDSF09TylbQ0gyXWM0W2NIXVtjSF1bY0hdW2NIXVtjSF00

> <s_epik_cmdline>
J2VwaWtfcHl0aG9uJywgJy1waHQnLCAnMC41JywgJy1waCcsICc3LjUnLCAnLW50JywgJy1tYScsICcyMDAnLCAnLWltYWUnLCAnPGluZmlsZS5tYWU+JywgJy1vbWFlJywgJzxvdXRmaWxlLm1hZT4n

> <r_lp_tautomer_probability>
1

> <r_epik_Ionization_Penalty>
  0.0030

> <r_epik_Ionization_Penalty_Charging>
  0.0000

> <r_epik_Ionization_Penalty_Neutral>
  0.0030

> <r_epik_State_Penalty>
 -0.0000

> <r_epik_Charging_Adjusted_Penalty>
0

> <i_epik_Tot_Q>
0

> <i_epik_Tot_abs_Q>
0

> <s_lp_Force_Field>
OPLS3e

> <r_lp_Energy>
41.098308

> <b_lp_Chiralities_Consistent>
1

> <s_lp_Variant>
sdf/inactives_sanitized.sdf:130-1

$$$$
sdf/inactives_sanitized.sdf:131
                    3D
 Schrodinger Suite 2020-1.
 51 53  0  0  1  0            999 V2000
   -0.3389    0.9616    2.6940 C   0  0  0  0  0  0
   -0.4369   -0.4403    2.1268 C   0  0  0  0  0  0
    0.0389   -0.2804    0.6784 C   0  0  1  0  0  0
   -0.5691    1.0438    0.3353 N   0  0  2  0  0  0
   -0.7647    1.8955    1.5512 C   0  0  0  0  0  0
    1.5812   -0.2331    0.5244 C   0  0  0  0  0  0
    2.0768    0.3913   -0.5637 N   0  0  0  0  0  0
    2.3004   -0.9102    1.2602 O   0  0  0  0  0  0
   -1.7975    1.0833   -0.9337 S   0  0  0  0  0  0
   -2.1757    2.8294   -1.2141 C   0  0  0  0  0  0
   -1.1938    0.5488   -2.1594 O   0  0  0  0  0  0
   -3.0023    0.4487   -0.3856 O   0  0  0  0  0  0
    3.4923    0.5111   -0.9470 C   0  0  2  0  0  0
    4.1029    1.5980   -0.0755 C   0  0  0  0  0  0
    3.6295    0.8016   -2.4652 C   0  0  0  0  0  0
    3.0576   -0.2704   -3.3789 C   0  0  0  0  0  0
    3.8029   -1.4355   -3.6578 C   0  0  0  0  0  0
    3.2409   -2.4548   -4.4156 C   0  0  0  0  0  0
    1.9344   -2.3463   -4.8760 C   0  0  0  0  0  0
    1.1749   -1.2225   -4.5751 C   0  0  0  0  0  0
    1.7198   -0.1918   -3.8217 C   0  0  0  0  0  0
    4.8941    2.4441   -0.4921 O   0  0  0  0  0  0
   -3.3491    3.3381   -0.6409 C   0  0  0  0  0  0
   -3.7441    4.6539   -0.8701 C   0  0  0  0  0  0
   -2.9719    5.4795   -1.6809 C   0  0  0  0  0  0
   -1.3728    3.6774   -2.0102 C   0  0  0  0  0  0
   -1.7969    4.9922   -2.2476 C   0  0  0  0  0  0
   -0.0913    3.2444   -2.5960 N   0  3  0  0  0  0
    0.7352    2.7269   -1.8550 O   0  0  0  0  0  0
    0.1054    3.4745   -3.7850 O   0  5  0  0  0  0
    0.6917    1.1693    2.9894 H   0  0  0  0  0  0
   -0.9546    1.0894    3.5855 H   0  0  0  0  0  0
   -1.4715   -0.7886    2.1456 H   0  0  0  0  0  0
    0.1491   -1.1552    2.7069 H   0  0  0  0  0  0
   -0.3140   -1.0836    0.0296 H   0  0  0  0  0  0
   -0.0829    2.7460    1.5906 H   0  0  0  0  0  0
   -1.8166    2.1175    1.7379 H   0  0  0  0  0  0
    1.4302    0.8708   -1.1740 H   0  0  0  0  0  0
    3.9892   -0.4392   -0.7407 H   0  0  0  0  0  0
    3.8124    1.5699    0.9753 H   0  0  0  0  0  0
    3.1478    1.7485   -2.7166 H   0  0  0  0  0  0
    4.6826    0.9240   -2.7247 H   0  0  0  0  0  0
    4.8121   -1.5367   -3.2860 H   0  0  0  0  0  0
    3.8189   -3.3390   -4.6404 H   0  0  0  0  0  0
    1.5030   -3.1449   -5.4615 H   0  0  0  0  0  0
    0.1543   -1.1527   -4.9220 H   0  0  0  0  0  0
    1.1163    0.6701   -3.5805 H   0  0  0  0  0  0
   -3.9751    2.7134   -0.0212 H   0  0  0  0  0  0
   -4.6543    5.0297   -0.4263 H   0  0  0  0  0  0
   -3.2794    6.4984   -1.8652 H   0  0  0  0  0  0
   -1.1995    5.6511   -2.8615 H   0  0  0  0  0  0
  1  5  1  0  0  0
  1  2  1  0  0  0
  1 31  1  0  0  0
  1 32  1  0  0  0
  2  3  1  0  0  0
  2 33  1  0  0  0
  2 34  1  0  0  0
  3  4  1  0  0  0
  3  6  1  0  0  0
  3 35  1  0  0  0
  4  9  1  0  0  0
  4  5  1  0  0  0
  5 36  1  0  0  0
  5 37  1  0  0  0
  6  8  2  0  0  0
  6  7  1  0  0  0
  7 13  1  0  0  0
  7 38  1  0  0  0
  9 10  1  0  0  0
  9 11  2  0  0  0
  9 12  2  0  0  0
 10 23  2  0  0  0
 10 26  1  0  0  0
 13 15  1  0  0  0
 13 14  1  0  0  0
 13 39  1  0  0  0
 14 22  2  0  0  0
 14 40  1  0  0  0
 15 16  1  0  0  0
 15 41  1  0  0  0
 15 42  1  0  0  0
 16 17  2  0  0  0
 16 21  1  0  0  0
 17 18  1  0  0  0
 17 43  1  0  0  0
 18 19  2  0  0  0
 18 44  1  0  0  0
 19 20  1  0  0  0
 19 45  1  0  0  0
 20 21  2  0  0  0
 20 46  1  0  0  0
 21 47  1  0  0  0
 23 24  1  0  0  0
 23 48  1  0  0  0
 24 25  2  0  0  0
 24 49  1  0  0  0
 25 27  1  0  0  0
 25 50  1  0  0  0
 26 27  2  0  0  0
 26 28  1  0  0  0
 27 51  1  0  0  0
 28 29  2  0  0  0
 28 30  1  0  0  0
M  CHG  2  28   1  30  -1
M  END
> <chembl_id>
CHEMBL215866

> <chembl_pref_name>
None

> <i_m_ct_stereo_status>
1

> <s_m_source_file>
sdf/inactives_sanitized.sdf

> <i_m_source_file_index>
131

> <i_lp_mmshare_version>
49012

> <i_f3d_flags>
0

> <s_epik_input>
Tz1bTitdKFtPLV0pYzFbY0hdW2NIXVtjSF1bY0hdYzFTKD1PKSg9TylOMltDSDJdW0NIMl1bQ0gyXVtDQEBIXTJDKD1PKVtOSF1bQ0BIXShbQ0hdPU8pW0NIMl1jM1tjSF1bY0hdW2NIXVtjSF1bY0hdMw==

> <s_epik_cmdline>
J2VwaWtfcHl0aG9uJywgJy1waHQnLCAnMC41JywgJy1waCcsICc3LjUnLCAnLW50JywgJy1tYScsICcyMDAnLCAnLWltYWUnLCAnPGluZmlsZS5tYWU+JywgJy1vbWFlJywgJzxvdXRmaWxlLm1hZT4n

> <r_lp_tautomer_probability>
1

> <r_epik_Ionization_Penalty>
  0.0031

> <r_epik_Ionization_Penalty_Charging>
  0.0000

> <r_epik_Ionization_Penalty_Neutral>
  0.0031

> <r_epik_State_Penalty>
 -0.0000

> <r_epik_Charging_Adjusted_Penalty>
0

> <i_epik_Tot_Q>
0

> <i_epik_Tot_abs_Q>
2

> <s_lp_Force_Field>
OPLS3e

> <r_lp_Energy>
38.138478

> <b_lp_Chiralities_Consistent>
1

> <s_lp_Variant>
sdf/inactives_sanitized.sdf:131-1

$$$$
sdf/inactives_sanitized.sdf:132
                    3D
 Schrodinger Suite 2020-1.
 51 53  0  0  1  0            999 V2000
   -1.9242    0.0601    1.0751 C   0  0  0  0  0  0
   -0.5002   -0.4110    0.8204 C   0  0  0  0  0  0
   -0.0956    0.1815   -0.5375 C   0  0  1  0  0  0
   -0.8901    1.4432   -0.5701 N   0  0  2  0  0  0
   -2.2008    1.1869    0.0778 C   0  0  0  0  0  0
    1.4237    0.4308   -0.6212 C   0  0  0  0  0  0
    2.1215   -0.3823   -1.4375 N   0  0  0  0  0  0
    1.9614    1.2761    0.0967 O   0  0  0  0  0  0
   -0.8586    2.4924   -2.0031 S   0  0  0  0  0  0
   -1.6164    4.0259   -1.4703 C   0  0  0  0  0  0
    0.5398    2.7957   -2.3290 O   0  0  0  0  0  0
   -1.7379    1.8836   -3.0083 O   0  0  0  0  0  0
    3.5748   -0.3621   -1.6690 C   0  0  2  0  0  0
    3.8868    0.8305   -2.5616 C   0  0  0  0  0  0
    4.0512   -1.7111   -2.2696 C   0  0  0  0  0  0
    3.7686   -2.9322   -1.4085 C   0  0  0  0  0  0
    4.6160   -3.2473   -0.3252 C   0  0  0  0  0  0
    4.3015   -4.3049    0.5180 C   0  0  0  0  0  0
    3.1395   -5.0396    0.3164 C   0  0  0  0  0  0
    2.2752   -4.7159   -0.7220 C   0  0  0  0  0  0
    2.5713   -3.6614   -1.5754 C   0  0  0  0  0  0
    4.7134    0.8023   -3.4733 O   0  0  0  0  0  0
   -2.9816    4.2374   -1.6647 C   0  0  0  0  0  0
   -3.5654    5.4267   -1.2381 C   0  0  0  0  0  0
   -2.7942    6.4159   -0.6102 C   0  0  0  0  0  0
   -0.8395    4.9944   -0.8351 C   0  0  0  0  0  0
   -1.4252    6.1838   -0.4115 C   0  0  0  0  0  0
   -3.4166    7.6866   -0.1629 N   0  3  0  0  0  0
   -2.7077    8.5313    0.3773 O   0  0  0  0  0  0
   -4.6192    7.8504   -0.3497 O   0  5  0  0  0  0
   -2.0267    0.4183    2.1004 H   0  0  0  0  0  0
   -2.6406   -0.7525    0.9452 H   0  0  0  0  0  0
   -0.4553   -1.5009    0.7962 H   0  0  0  0  0  0
    0.1593   -0.0946    1.6320 H   0  0  0  0  0  0
   -0.4021   -0.4865   -1.3460 H   0  0  0  0  0  0
   -2.6696    2.0976    0.4514 H   0  0  0  0  0  0
   -2.9016    0.8468   -0.6864 H   0  0  0  0  0  0
    1.6151   -1.0694   -1.9768 H   0  0  0  0  0  0
    4.0708   -0.2299   -0.7051 H   0  0  0  0  0  0
    3.3433    1.7459   -2.3252 H   0  0  0  0  0  0
    3.5889   -1.8749   -3.2453 H   0  0  0  0  0  0
    5.1275   -1.6771   -2.4483 H   0  0  0  0  0  0
    5.5113   -2.6690   -0.1490 H   0  0  0  0  0  0
    4.9588   -4.5518    1.3387 H   0  0  0  0  0  0
    2.9007   -5.8591    0.9784 H   0  0  0  0  0  0
    1.3657   -5.2817   -0.8613 H   0  0  0  0  0  0
    1.8837   -3.4046   -2.3682 H   0  0  0  0  0  0
   -3.5930    3.4866   -2.1438 H   0  0  0  0  0  0
   -4.6235    5.5722   -1.4012 H   0  0  0  0  0  0
    0.2157    4.8307   -0.6700 H   0  0  0  0  0  0
   -0.8037    6.9232    0.0725 H   0  0  0  0  0  0
  1  5  1  0  0  0
  1  2  1  0  0  0
  1 31  1  0  0  0
  1 32  1  0  0  0
  2  3  1  0  0  0
  2 33  1  0  0  0
  2 34  1  0  0  0
  3  4  1  0  0  0
  3  6  1  0  0  0
  3 35  1  0  0  0
  4  9  1  0  0  0
  4  5  1  0  0  0
  5 36  1  0  0  0
  5 37  1  0  0  0
  6  8  2  0  0  0
  6  7  1  0  0  0
  7 13  1  0  0  0
  7 38  1  0  0  0
  9 10  1  0  0  0
  9 11  2  0  0  0
  9 12  2  0  0  0
 10 23  2  0  0  0
 10 26  1  0  0  0
 13 15  1  0  0  0
 13 14  1  0  0  0
 13 39  1  0  0  0
 14 22  2  0  0  0
 14 40  1  0  0  0
 15 16  1  0  0  0
 15 41  1  0  0  0
 15 42  1  0  0  0
 16 17  2  0  0  0
 16 21  1  0  0  0
 17 18  1  0  0  0
 17 43  1  0  0  0
 18 19  2  0  0  0
 18 44  1  0  0  0
 19 20  1  0  0  0
 19 45  1  0  0  0
 20 21  2  0  0  0
 20 46  1  0  0  0
 21 47  1  0  0  0
 23 24  1  0  0  0
 23 48  1  0  0  0
 24 25  2  0  0  0
 24 49  1  0  0  0
 25 27  1  0  0  0
 25 28  1  0  0  0
 26 27  2  0  0  0
 26 50  1  0  0  0
 27 51  1  0  0  0
 28 29  2  0  0  0
 28 30  1  0  0  0
M  CHG  2  28   1  30  -1
M  END
> <chembl_id>
CHEMBL209491

> <chembl_pref_name>
None

> <i_m_ct_stereo_status>
1

> <s_m_source_file>
sdf/inactives_sanitized.sdf

> <i_m_source_file_index>
132

> <i_lp_mmshare_version>
49012

> <i_f3d_flags>
0

> <s_epik_input>
W2NIXTFbY0hdYyhbTitdKD1PKVtPLV0pW2NIXVtjSF1jMVMoPU8pKD1PKU4yW0NIMl1bQ0gyXVtDSDJdW0NAQEhdMkMoPU8pW05IXVtDQEhdKFtDSF09TylbQ0gyXWMzW2NIXVtjSF1bY0hdW2NIXVtjSF0z

> <s_epik_cmdline>
J2VwaWtfcHl0aG9uJywgJy1waHQnLCAnMC41JywgJy1waCcsICc3LjUnLCAnLW50JywgJy1tYScsICcyMDAnLCAnLWltYWUnLCAnPGluZmlsZS5tYWU+JywgJy1vbWFlJywgJzxvdXRmaWxlLm1hZT4n

> <r_lp_tautomer_probability>
1

> <r_epik_Ionization_Penalty>
  0.0031

> <r_epik_Ionization_Penalty_Charging>
  0.0000

> <r_epik_Ionization_Penalty_Neutral>
  0.0031

> <r_epik_State_Penalty>
 -0.0000

> <r_epik_Charging_Adjusted_Penalty>
0

> <i_epik_Tot_Q>
0

> <i_epik_Tot_abs_Q>
2

> <s_lp_Force_Field>
OPLS3e

> <r_lp_Energy>
37.343638

> <b_lp_Chiralities_Consistent>
1

> <s_lp_Variant>
sdf/inactives_sanitized.sdf:132-1

$$$$
sdf/inactives_sanitized.sdf:133
                    3D
 Schrodinger Suite 2020-1.
 60 60  0  0  1  0            999 V2000
   -0.1563    0.3153    0.2407 C   0  0  0  0  0  0
    1.9355   -0.0305    1.5079 N   0  0  0  0  0  0
    2.1962    1.0699    2.2422 C   0  0  0  0  0  0
    1.3470   -0.0496    0.1622 C   0  0  1  0  0  0
   -0.5433    1.3822   -0.4810 N   0  0  0  0  0  0
    3.5141   -2.0456    6.0312 C   0  0  0  0  0  0
    2.7832    0.8430    3.6208 C   0  0  0  0  0  0
    3.4221   -0.6444    5.4651 C   0  0  0  0  0  0
   -2.2515    2.1322   -1.9614 C   0  0  0  0  0  0
    2.8823   -0.4418    4.1851 C   0  0  0  0  0  0
   -1.8950    1.9572   -0.4890 C   0  0  2  0  0  0
   -0.9170   -0.3646    0.9323 O   0  0  0  0  0  0
    1.9875    2.2120    1.8257 O   0  0  0  0  0  0
    3.3825   -3.0379    5.3156 O   0  0  0  0  0  0
   -2.5923    3.2199   -2.4357 O   0  0  0  0  0  0
    3.7412   -2.1641    7.3443 N   0  0  0  0  0  0
    1.5249   -1.4538   -0.5147 C   0  0  2  0  0  0
   -2.2287    0.8562   -2.8304 C   0  0  0  0  0  0
   -2.6412    1.1368   -4.1562 O   0  0  0  0  0  0
    3.2386    1.9355    4.3725 C   0  0  0  0  0  0
    3.8724    0.4732    6.1853 C   0  0  0  0  0  0
    3.7793    1.7519    5.6424 C   0  0  0  0  0  0
   -1.9766    3.2802    0.3218 C   0  0  0  0  0  0
    3.0219   -1.8333   -0.6530 C   0  0  0  0  0  0
    0.8187   -1.5943   -1.8867 C   0  0  0  0  0  0
   -1.6804    3.1064    1.8257 C   0  0  0  0  0  0
   -1.7632    4.4259    2.6117 C   0  0  0  0  0  0
    3.2691   -3.3016   -1.0330 C   0  0  0  0  0  0
   -1.4313    4.2534    4.1000 C   0  0  0  0  0  0
    2.1322   -0.9369    1.9061 H   0  0  0  0  0  0
    1.8742    0.6904   -0.4450 H   0  0  0  0  0  0
    0.1581    1.9117   -0.9788 H   0  0  0  0  0  0
    2.5308   -1.3001    3.6292 H   0  0  0  0  0  0
   -2.6231    1.2653   -0.0590 H   0  0  0  0  0  0
    3.8385   -1.3424    7.9221 H   0  0  0  0  0  0
    3.8078   -3.0795    7.7646 H   0  0  0  0  0  0
    1.0739   -2.1967    0.1469 H   0  0  0  0  0  0
   -1.2196    0.4462   -2.8597 H   0  0  0  0  0  0
   -2.8834    0.1007   -2.3955 H   0  0  0  0  0  0
   -3.5472    1.4542   -4.1336 H   0  0  0  0  0  0
    3.1810    2.9410    3.9797 H   0  0  0  0  0  0
    4.3026    0.3684    7.1709 H   0  0  0  0  0  0
    4.1285    2.6040    6.2068 H   0  0  0  0  0  0
   -1.2718    4.0062   -0.0894 H   0  0  0  0  0  0
   -2.9729    3.7141    0.2145 H   0  0  0  0  0  0
    3.4906   -1.1861   -1.3954 H   0  0  0  0  0  0
    3.5527   -1.6413    0.2792 H   0  0  0  0  0  0
    1.1840   -0.8494   -2.5942 H   0  0  0  0  0  0
   -0.2617   -1.4770   -1.8068 H   0  0  0  0  0  0
    0.9846   -2.5772   -2.3271 H   0  0  0  0  0  0
   -2.3802    2.3861    2.2525 H   0  0  0  0  0  0
   -0.6848    2.6836    1.9590 H   0  0  0  0  0  0
   -1.0774    5.1547    2.1771 H   0  0  0  0  0  0
   -2.7633    4.8500    2.5134 H   0  0  0  0  0  0
    4.2381   -3.6393   -0.6648 H   0  0  0  0  0  0
    3.2660   -3.4341   -2.1152 H   0  0  0  0  0  0
    2.5101   -3.9613   -0.6116 H   0  0  0  0  0  0
   -1.4985    5.2057    4.6266 H   0  0  0  0  0  0
   -0.4196    3.8699    4.2374 H   0  0  0  0  0  0
   -2.1208    3.5592    4.5814 H   0  0  0  0  0  0
  1  4  1  0  0  0
  1  5  1  0  0  0
  1 12  2  0  0  0
  2  4  1  0  0  0
  2  3  1  0  0  0
  2 30  1  0  0  0
  3  7  1  0  0  0
  3 13  2  0  0  0
  4 17  1  0  0  0
  4 31  1  0  0  0
  5 11  1  0  0  0
  5 32  1  0  0  0
  6  8  1  0  0  0
  6 14  2  0  0  0
  6 16  1  0  0  0
  7 10  2  0  0  0
  7 20  1  0  0  0
  8 10  1  0  0  0
  8 21  2  0  0  0
  9 11  1  0  0  0
  9 15  2  0  0  0
  9 18  1  0  0  0
 10 33  1  0  0  0
 11 23  1  0  0  0
 11 34  1  0  0  0
 16 35  1  0  0  0
 16 36  1  0  0  0
 17 24  1  0  0  0
 17 25  1  0  0  0
 17 37  1  0  0  0
 18 19  1  0  0  0
 18 38  1  0  0  0
 18 39  1  0  0  0
 19 40  1  0  0  0
 20 22  2  0  0  0
 20 41  1  0  0  0
 21 22  1  0  0  0
 21 42  1  0  0  0
 22 43  1  0  0  0
 23 26  1  0  0  0
 23 44  1  0  0  0
 23 45  1  0  0  0
 24 28  1  0  0  0
 24 46  1  0  0  0
 24 47  1  0  0  0
 25 48  1  0  0  0
 25 49  1  0  0  0
 25 50  1  0  0  0
 26 27  1  0  0  0
 26 51  1  0  0  0
 26 52  1  0  0  0
 27 29  1  0  0  0
 27 53  1  0  0  0
 27 54  1  0  0  0
 28 55  1  0  0  0
 28 56  1  0  0  0
 28 57  1  0  0  0
 29 58  1  0  0  0
 29 59  1  0  0  0
 29 60  1  0  0  0
M  END
> <chembl_id>
CHEMBL99288

> <chembl_pref_name>
None

> <i_m_ct_stereo_status>
1

> <s_m_source_file>
sdf/inactives_sanitized.sdf

> <i_m_source_file_index>
133

> <i_lp_mmshare_version>
49012

> <i_f3d_flags>
0

> <s_epik_input>
W0NIM11bQ0gyXVtDSDJdW0NIMl1bQ0BASF0oQyg9TylbQ0gyXVtPSF0pW05IXUMoPU8pW0NASF0oW0NAQEhdKFtDSDNdKVtDSDJdW0NIM10pW05IXUMoPU8pYzFbY0hdYyhDKD1PKVtOSDJdKVtjSF1bY0hdW2NIXTE=

> <s_epik_cmdline>
J2VwaWtfcHl0aG9uJywgJy1waHQnLCAnMC41JywgJy1waCcsICc3LjUnLCAnLW50JywgJy1tYScsICcyMDAnLCAnLWltYWUnLCAnPGluZmlsZS5tYWU+JywgJy1vbWFlJywgJzxvdXRmaWxlLm1hZT4n

> <r_lp_tautomer_probability>
1

> <r_epik_Ionization_Penalty>
  0.0001

> <r_epik_Ionization_Penalty_Charging>
  0.0000

> <r_epik_Ionization_Penalty_Neutral>
  0.0001

> <r_epik_State_Penalty>
 -0.0000

> <r_epik_Charging_Adjusted_Penalty>
0

> <i_epik_Tot_Q>
0

> <i_epik_Tot_abs_Q>
0

> <s_lp_Force_Field>
OPLS3e

> <r_lp_Energy>
32.197642

> <b_lp_Chiralities_Consistent>
1

> <s_lp_Variant>
sdf/inactives_sanitized.sdf:133-1

$$$$
sdf/inactives_sanitized.sdf:134
                    3D
 Schrodinger Suite 2020-1.
 75 78  0  0  1  0            999 V2000
   -0.6501   -1.2054    4.5665 S   0  0  0  0  0  0
    0.4905   -0.2592    3.6112 N   0  0  3  0  0  0
   -0.5053   -0.0487   -0.0216 C   0  0  0  0  0  0
   -2.0442    0.0691   -0.0073 C   0  0  2  0  0  0
   -2.6250   -0.3748   -1.3561 C   0  0  0  0  0  0
   -1.3681   -2.3786    3.4192 C   0  0  0  0  0  0
   -3.3123   -1.5900   -1.4498 C   0  0  0  0  0  0
    0.0214   -1.1312    0.5833 N   0  0  0  0  0  0
    0.1177   -1.9815    5.5470 O   0  0  0  0  0  0
   -1.7187   -0.2969    4.9973 O   0  0  0  0  0  0
   -3.8337   -2.0505   -2.6672 C   0  0  0  0  0  0
    2.1334   -0.5555    1.7525 C   0  0  0  0  0  0
    1.8165   -0.7866    3.2327 C   0  0  0  0  0  0
    0.1814    0.8140   -0.5723 O   0  0  0  0  0  0
   -2.5203    1.4785    0.4454 C   0  0  0  0  0  0
    2.9644    0.2872    1.4170 O   0  0  0  0  0  0
   -4.5471   -3.3609   -2.7476 C   0  0  0  0  0  0
   -2.6973   -2.2434    3.0127 C   0  0  0  0  0  0
   -0.5853   -3.4241    2.9270 C   0  0  0  0  0  0
   -2.9953   -4.9835    0.6094 O   0  0  0  0  0  0
    1.4485   -1.4464    0.7011 C   0  0  0  0  0  0
   -2.4341   -4.1434    1.5462 C   0  0  0  0  0  0
   -3.2293   -3.1314    2.0826 C   0  0  0  0  0  0
   -1.1169   -4.3052    1.9906 C   0  0  0  0  0  0
   -2.3300   -5.3188   -0.5536 C   0  0  0  0  0  0
   -2.4651    0.4028   -2.5088 C   0  0  0  0  0  0
   -3.6558   -1.2496   -3.8041 C   0  0  0  0  0  0
   -2.9803   -0.0328   -3.7268 C   0  0  0  0  0  0
   -4.0553    1.6682    0.5575 C   0  0  0  0  0  0
   -4.4275   -4.1720   -3.8853 C   0  0  0  0  0  0
   -5.3402   -3.8121   -1.6822 C   0  0  0  0  0  0
   -2.6511   -6.5396   -1.1487 C   0  0  0  0  0  0
   -1.4110   -4.4639   -1.1810 C   0  0  0  0  0  0
   -4.4033    3.1304    0.8916 C   0  0  0  0  0  0
   -4.7084    0.7075    1.5715 C   0  0  0  0  0  0
   -5.0789   -5.4004   -3.9566 C   0  0  0  0  0  0
   -5.9931   -5.0398   -1.7498 C   0  0  0  0  0  0
   -0.8128   -4.8384   -2.3804 C   0  0  0  0  0  0
   -2.0518   -6.9164   -2.3476 C   0  0  0  0  0  0
   -5.8595   -5.8296   -2.8876 C   0  0  0  0  0  0
   -1.1346   -6.0641   -2.9577 C   0  0  0  0  0  0
    0.1976    0.6462    3.2334 H   0  0  0  0  0  0
   -2.4005   -0.6301    0.7489 H   0  0  0  0  0  0
   -3.4240   -2.1955   -0.5635 H   0  0  0  0  0  0
   -0.6139   -1.8076    0.9815 H   0  0  0  0  0  0
    1.8769   -1.8460    3.4786 H   0  0  0  0  0  0
    2.5634   -0.2804    3.8450 H   0  0  0  0  0  0
   -2.0722    1.7099    1.4142 H   0  0  0  0  0  0
   -2.1247    2.2316   -0.2387 H   0  0  0  0  0  0
   -3.3173   -1.4470    3.3967 H   0  0  0  0  0  0
    0.4363   -3.5476    3.2538 H   0  0  0  0  0  0
    1.5554   -2.4916    0.9908 H   0  0  0  0  0  0
    1.9447   -1.3507   -0.2669 H   0  0  0  0  0  0
   -4.2532   -3.0180    1.7573 H   0  0  0  0  0  0
   -0.5041   -5.1054    1.6022 H   0  0  0  0  0  0
   -1.9350    1.3430   -2.4645 H   0  0  0  0  0  0
   -4.0489   -1.5623   -4.7604 H   0  0  0  0  0  0
   -2.8534    0.5712   -4.6131 H   0  0  0  0  0  0
   -4.4945    1.4573   -0.4188 H   0  0  0  0  0  0
   -3.8139   -3.8623   -4.7186 H   0  0  0  0  0  0
   -5.4597   -3.2116   -0.7922 H   0  0  0  0  0  0
   -3.3730   -7.1945   -0.6835 H   0  0  0  0  0  0
   -1.1685   -3.5031   -0.7524 H   0  0  0  0  0  0
   -4.0048    3.4235    1.8638 H   0  0  0  0  0  0
   -5.4825    3.2856    0.9156 H   0  0  0  0  0  0
   -3.9958    3.8148    0.1465 H   0  0  0  0  0  0
   -4.2683    0.8149    2.5637 H   0  0  0  0  0  0
   -4.6001   -0.3337    1.2680 H   0  0  0  0  0  0
   -5.7786    0.8971    1.6623 H   0  0  0  0  0  0
   -4.9747   -6.0193   -4.8355 H   0  0  0  0  0  0
   -6.5996   -5.3778   -0.9223 H   0  0  0  0  0  0
   -0.1087   -4.1777   -2.8645 H   0  0  0  0  0  0
   -2.3027   -7.8620   -2.8052 H   0  0  0  0  0  0
   -6.3638   -6.7833   -2.9406 H   0  0  0  0  0  0
   -0.6734   -6.3540   -3.8902 H   0  0  0  0  0  0
  1  2  1  0  0  0
  1  6  1  0  0  0
  1  9  2  0  0  0
  1 10  2  0  0  0
  2 13  1  0  0  0
  2 42  1  0  0  0
  3  8  1  0  0  0
  3  4  1  0  0  0
  3 14  2  0  0  0
  4  5  1  0  0  0
  4 15  1  0  0  0
  4 43  1  0  0  0
  5  7  2  0  0  0
  5 26  1  0  0  0
  6 18  2  0  0  0
  6 19  1  0  0  0
  7 11  1  0  0  0
  7 44  1  0  0  0
  8 21  1  0  0  0
  8 45  1  0  0  0
 11 17  1  0  0  0
 11 27  2  0  0  0
 12 13  1  0  0  0
 12 16  2  0  0  0
 12 21  1  0  0  0
 13 46  1  0  0  0
 13 47  1  0  0  0
 15 29  1  0  0  0
 15 48  1  0  0  0
 15 49  1  0  0  0
 17 30  2  0  0  0
 17 31  1  0  0  0
 18 23  1  0  0  0
 18 50  1  0  0  0
 19 24  2  0  0  0
 19 51  1  0  0  0
 20 22  1  0  0  0
 20 25  1  0  0  0
 21 52  1  0  0  0
 21 53  1  0  0  0
 22 24  1  0  0  0
 22 23  2  0  0  0
 23 54  1  0  0  0
 24 55  1  0  0  0
 25 32  2  0  0  0
 25 33  1  0  0  0
 26 28  2  0  0  0
 26 56  1  0  0  0
 27 28  1  0  0  0
 27 57  1  0  0  0
 28 58  1  0  0  0
 29 34  1  0  0  0
 29 35  1  0  0  0
 29 59  1  0  0  0
 30 36  1  0  0  0
 30 60  1  0  0  0
 31 37  2  0  0  0
 31 61  1  0  0  0
 32 39  1  0  0  0
 32 62  1  0  0  0
 33 38  2  0  0  0
 33 63  1  0  0  0
 34 64  1  0  0  0
 34 65  1  0  0  0
 34 66  1  0  0  0
 35 67  1  0  0  0
 35 68  1  0  0  0
 35 69  1  0  0  0
 36 40  2  0  0  0
 36 70  1  0  0  0
 37 40  1  0  0  0
 37 71  1  0  0  0
 38 41  1  0  0  0
 38 72  1  0  0  0
 39 41  2  0  0  0
 39 73  1  0  0  0
 40 74  1  0  0  0
 41 75  1  0  0  0
M  END
> <chembl_id>
CHEMBL113805

> <chembl_pref_name>
None

> <i_m_ct_stereo_status>
1

> <s_m_source_file>
sdf/inactives_sanitized.sdf

> <i_m_source_file_index>
134

> <i_lp_mmshare_version>
49012

> <i_f3d_flags>
0

> <s_epik_input>
W2NIXTFbY0hdW2NIXVtjSF1bY0hdYzFPYyhbY0hdW2NIXTIpW2NIXVtjSF1jMlMoPU8pKD1PKVtOSF1bQ0gyXUMoPU8pW0NIMl1bTkhdQyg9TylbQ0BASF0oW0NIMl1bQ0hdKFtDSDNdKVtDSDNdKWMzW2NIXWMoW2NIXVtjSF1bY0hdMyktYzRbY0hdW2NIXVtjSF1bY0hdW2NIXTQ=

> <s_epik_cmdline>
J2VwaWtfcHl0aG9uJywgJy1waHQnLCAnMC41JywgJy1waCcsICc3LjUnLCAnLW50JywgJy1tYScsICcyMDAnLCAnLWltYWUnLCAnPGluZmlsZS5tYWU+JywgJy1vbWFlJywgJzxvdXRmaWxlLm1hZT4n

> <r_lp_tautomer_probability>
1

> <r_epik_Ionization_Penalty>
  0.0006

> <r_epik_Ionization_Penalty_Charging>
  0.0000

> <r_epik_Ionization_Penalty_Neutral>
  0.0006

> <r_epik_State_Penalty>
 -0.0000

> <r_epik_Charging_Adjusted_Penalty>
0

> <i_epik_Tot_Q>
0

> <i_epik_Tot_abs_Q>
0

> <s_lp_Force_Field>
OPLS3e

> <r_lp_Energy>
47.190332

> <b_lp_Chiralities_Consistent>
1

> <s_lp_Variant>
sdf/inactives_sanitized.sdf:134-1

$$$$
sdf/inactives_sanitized.sdf:135
                    3D
 Schrodinger Suite 2020-1.
 70 71  0  0  1  0            999 V2000
    0.4933    1.6232    0.5885 C   0  0  0  0  0  0
    0.5974    0.1890    0.0501 C   0  0  2  0  0  0
    2.9412    0.2287   -0.9602 C   0  0  0  0  0  0
    2.0116   -0.2132   -0.0880 N   0  0  0  0  0  0
   -0.7918    1.9246    1.4657 C   0  0  0  0  0  0
    5.5899    1.7576    0.0245 C   0  0  0  0  0  0
    4.3695   -0.3320   -0.7490 C   0  0  2  0  0  0
    5.4096    0.7101   -0.8860 N   0  0  0  0  0  0
    1.3316    2.5099    0.3951 O   0  0  0  0  0  0
   -0.1930   -0.0277   -1.2739 C   0  0  0  0  0  0
    2.7178    1.0144   -1.8824 O   0  0  0  0  0  0
    6.4211    2.6542   -0.1200 O   0  0  0  0  0  0
   -1.4734    1.0186    1.9486 O   0  0  0  0  0  0
    4.7430    1.6679    1.0804 O   0  0  0  0  0  0
    4.6996   -1.4681   -1.7563 C   0  0  0  0  0  0
   -1.0233    3.2432    1.6021 N   0  0  0  0  0  0
    4.7061    2.6635    2.0964 C   0  0  0  0  0  0
   -1.7042   -0.1221   -1.1437 C   0  0  0  0  0  0
    3.4595    2.4929    2.9546 C   0  0  0  0  0  0
    3.8358   -2.7501   -1.6416 C   0  0  0  0  0  0
   -2.1462    3.8149    2.3407 C   0  0  0  0  0  0
   -2.3011   -1.2976   -0.6410 C   0  0  0  0  0  0
   -2.5120    1.0126   -1.3742 C   0  0  0  0  0  0
    2.7339    3.6232    3.3398 C   0  0  0  0  0  0
    3.0362    1.2210    3.3575 C   0  0  0  0  0  0
   -3.4990    3.6848    1.6129 C   0  0  0  0  0  0
    3.9163   -3.3983   -0.2425 C   0  0  0  0  0  0
    4.1800   -3.7491   -2.7675 C   0  0  0  0  0  0
   -4.6543    4.3482    2.3742 C   0  0  0  0  0  0
   -3.8818    0.9459   -1.1572 C   0  0  0  0  0  0
    1.5849    3.4837    4.1139 C   0  0  0  0  0  0
    1.8863    1.0819    4.1300 C   0  0  0  0  0  0
   -3.6730   -1.3439   -0.4312 C   0  0  0  0  0  0
    1.1657    2.2138    4.5045 C   0  0  0  0  0  0
   -4.4598   -0.2286   -0.6920 C   0  0  0  0  0  0
    0.2181   -0.5087    0.7983 H   0  0  0  0  0  0
    2.3209   -0.8629    0.6202 H   0  0  0  0  0  0
    4.4614   -0.7423    0.2591 H   0  0  0  0  0  0
    5.9376    0.7283   -1.7463 H   0  0  0  0  0  0
    0.0546    0.7465   -2.0025 H   0  0  0  0  0  0
    0.1460   -0.9534   -1.7425 H   0  0  0  0  0  0
    4.6200   -1.0788   -2.7738 H   0  0  0  0  0  0
    5.7440   -1.7618   -1.6333 H   0  0  0  0  0  0
   -0.3879    3.8947    1.1638 H   0  0  0  0  0  0
    5.5939    2.5898    2.7258 H   0  0  0  0  0  0
    4.7003    3.6564    1.6421 H   0  0  0  0  0  0
    2.7957   -2.4643   -1.8034 H   0  0  0  0  0  0
   -2.2094    3.3808    3.3407 H   0  0  0  0  0  0
   -1.9331    4.8699    2.5168 H   0  0  0  0  0  0
   -1.6937   -2.1617   -0.4155 H   0  0  0  0  0  0
   -2.0678    1.9370   -1.7136 H   0  0  0  0  0  0
    3.0527    4.6090    3.0335 H   0  0  0  0  0  0
    3.5911    0.3405    3.0674 H   0  0  0  0  0  0
   -3.4247    4.1285    0.6191 H   0  0  0  0  0  0
   -3.7385    2.6312    1.4614 H   0  0  0  0  0  0
    4.7826   -3.0502    0.3202 H   0  0  0  0  0  0
    3.9802   -4.4854   -0.2841 H   0  0  0  0  0  0
    3.0284   -3.1574    0.3426 H   0  0  0  0  0  0
    4.6078   -4.6785   -2.3914 H   0  0  0  0  0  0
    4.9018   -3.3370   -3.4734 H   0  0  0  0  0  0
    3.2885   -4.0105   -3.3383 H   0  0  0  0  0  0
   -5.5914    4.2433    1.8266 H   0  0  0  0  0  0
   -4.4735    5.4137    2.5203 H   0  0  0  0  0  0
   -4.7930    3.8935    3.3557 H   0  0  0  0  0  0
   -4.4983    1.8135   -1.3407 H   0  0  0  0  0  0
    1.0180    4.3555    4.4055 H   0  0  0  0  0  0
    1.5524    0.1009    4.4345 H   0  0  0  0  0  0
   -4.1289   -2.2477   -0.0549 H   0  0  0  0  0  0
    0.2706    2.1054    5.0991 H   0  0  0  0  0  0
   -5.5255   -0.2717   -0.5218 H   0  0  0  0  0  0
  1  2  1  0  0  0
  1  5  1  0  0  0
  1  9  2  0  0  0
  2  4  1  0  0  0
  2 10  1  0  0  0
  2 36  1  0  0  0
  3  4  1  0  0  0
  3  7  1  0  0  0
  3 11  2  0  0  0
  4 37  1  0  0  0
  5 13  2  0  0  0
  5 16  1  0  0  0
  6  8  1  0  0  0
  6 12  2  0  0  0
  6 14  1  0  0  0
  7  8  1  0  0  0
  7 15  1  0  0  0
  7 38  1  0  0  0
  8 39  1  0  0  0
 10 18  1  0  0  0
 10 40  1  0  0  0
 10 41  1  0  0  0
 14 17  1  0  0  0
 15 20  1  0  0  0
 15 42  1  0  0  0
 15 43  1  0  0  0
 16 21  1  0  0  0
 16 44  1  0  0  0
 17 19  1  0  0  0
 17 45  1  0  0  0
 17 46  1  0  0  0
 18 22  2  0  0  0
 18 23  1  0  0  0
 19 24  2  0  0  0
 19 25  1  0  0  0
 20 27  1  0  0  0
 20 28  1  0  0  0
 20 47  1  0  0  0
 21 26  1  0  0  0
 21 48  1  0  0  0
 21 49  1  0  0  0
 22 33  1  0  0  0
 22 50  1  0  0  0
 23 30  2  0  0  0
 23 51  1  0  0  0
 24 31  1  0  0  0
 24 52  1  0  0  0
 25 32  2  0  0  0
 25 53  1  0  0  0
 26 29  1  0  0  0
 26 54  1  0  0  0
 26 55  1  0  0  0
 27 56  1  0  0  0
 27 57  1  0  0  0
 27 58  1  0  0  0
 28 59  1  0  0  0
 28 60  1  0  0  0
 28 61  1  0  0  0
 29 62  1  0  0  0
 29 63  1  0  0  0
 29 64  1  0  0  0
 30 35  1  0  0  0
 30 65  1  0  0  0
 31 34  2  0  0  0
 31 66  1  0  0  0
 32 34  1  0  0  0
 32 67  1  0  0  0
 33 35  2  0  0  0
 33 68  1  0  0  0
 34 69  1  0  0  0
 35 70  1  0  0  0
M  END
> <chembl_id>
CHEMBL116477

> <chembl_pref_name>
None

> <s_m_source_file>
sdf/inactives_sanitized.sdf

> <i_m_source_file_index>
135

> <i_lp_mmshare_version>
49012

> <i_m_ct_stereo_status>
1

> <i_f3d_flags>
0

> <s_epik_input>
W2NIXTFbY0hdW2NIXVtjSF1bY0hdYzFbQ0gyXVtDQEhdKEMoPU8pQyg9TylbTkhdW0NIMl1bQ0gyXVtDSDNdKVtOSF1DKD1PKVtDQEBIXShbQ0gyXVtDSF0oW0NIM10pW0NIM10pW05IXUMoPU8pT1tDSDJdYzJbY0hdW2NIXVtjSF1bY0hdW2NIXTI=

> <s_epik_cmdline>
J2VwaWtfcHl0aG9uJywgJy1waHQnLCAnMC41JywgJy1waCcsICc3LjUnLCAnLW50JywgJy1tYScsICcyMDAnLCAnLWltYWUnLCAnPGluZmlsZS5tYWU+JywgJy1vbWFlJywgJzxvdXRmaWxlLm1hZT4n

> <r_lp_tautomer_probability>
1

> <r_epik_Ionization_Penalty>
  0.0000

> <r_epik_Ionization_Penalty_Charging>
  0.0000

> <r_epik_Ionization_Penalty_Neutral>
  0.0000

> <r_epik_State_Penalty>
 -0.0000

> <r_epik_Charging_Adjusted_Penalty>
0

> <i_epik_Tot_Q>
0

> <i_epik_Tot_abs_Q>
0

> <s_epik_Chemistry_Notes>
This compound has an ester and may undergo hydrolysis at high or low pH.

> <s_lp_Force_Field>
OPLS3e

> <r_lp_Energy>
35.271728

> <b_lp_Chiralities_Consistent>
1

> <s_lp_Variant>
sdf/inactives_sanitized.sdf:135-1

$$$$
sdf/inactives_sanitized.sdf:136
                    3D
 Schrodinger Suite 2020-1.
 61 65  0  0  1  0            999 V2000
   -2.6167   -3.5804    3.9645 C   0  0  0  0  0  0
   -2.0829   -3.0067    2.6414 C   0  0  2  0  0  0
   -0.5319   -2.9259    2.6216 C   0  0  0  0  0  0
   -0.0267   -2.3189    1.2944 C   0  0  0  0  0  0
   -0.6127   -0.8946    1.1172 C   0  0  2  0  0  0
   -2.1467   -1.0761    0.9787 C   0  0  0  0  0  0
   -2.7211   -1.6330    2.2984 C   0  0  0  0  0  0
    0.0244   -0.0963   -0.0698 C   0  0  2  0  0  0
    1.4869   -0.0269    0.0239 N   0  0  0  0  0  0
    2.3696   -0.6471   -0.7838 C   0  0  0  0  0  0
    2.0260   -1.3770   -1.7163 O   0  0  0  0  0  0
    3.8361   -0.4260   -0.4760 C   0  0  0  0  0  0
    4.8044   -1.2572   -1.0594 C   0  0  0  0  0  0
    6.1597   -1.0747   -0.7910 C   0  0  0  0  0  0
    6.5729   -0.0568    0.0648 C   0  0  0  0  0  0
    5.6301    0.7908    0.6573 C   0  0  0  0  0  0
    4.2674    0.6020    0.3816 C   0  0  0  0  0  0
    6.0582    1.8199    1.5275 N   0  0  0  0  0  0
    7.1791    1.8737    2.3265 C   0  0  0  0  0  0
    7.2294    2.9977    2.9948 N   0  0  0  0  0  0
    6.0914    3.6979    2.6088 N   0  0  0  0  0  0
    5.3643    2.9576    1.6954 N   0  0  0  0  0  0
   -0.4918    1.3643   -0.1848 C   0  0  0  0  0  0
   -0.7459    1.9688    0.8597 O   0  0  0  0  0  0
   -0.6335    1.9339   -1.4121 N   0  0  0  0  0  0
   -0.3595    1.2385   -2.6765 C   0  0  0  0  0  0
   -0.3330    2.3821   -3.6816 C   0  0  1  0  0  0
   -0.7252    1.7717   -5.3134 Cl  0  0  0  0  0  0
   -1.3924    3.3502   -3.1743 C   0  0  1  0  0  0
   -2.7206    2.9619   -3.5021 O   0  0  0  0  0  0
   -3.5721    3.5025   -2.5103 C   0  0  0  0  0  0
   -2.7801    3.3863   -1.2222 C   0  0  0  0  0  0
   -3.2306    3.4062   -0.0786 O   0  0  0  0  0  0
   -1.3176    3.2302   -1.6441 C   0  0  1  0  0  0
   -2.3622   -2.9385    4.8086 H   0  0  0  0  0  0
   -2.2008   -4.5691    4.1619 H   0  0  0  0  0  0
   -3.7022   -3.6819    3.9406 H   0  0  0  0  0  0
   -2.3649   -3.6858    1.8342 H   0  0  0  0  0  0
   -0.1842   -2.3203    3.4605 H   0  0  0  0  0  0
   -0.1003   -3.9140    2.7871 H   0  0  0  0  0  0
    1.0619   -2.2796    1.3294 H   0  0  0  0  0  0
   -0.2438   -2.9474    0.4290 H   0  0  0  0  0  0
   -0.3919   -0.3291    2.0261 H   0  0  0  0  0  0
   -2.6247   -0.1179    0.7738 H   0  0  0  0  0  0
   -2.3973   -1.6910    0.1126 H   0  0  0  0  0  0
   -2.5372   -0.9265    3.1099 H   0  0  0  0  0  0
   -3.8066   -1.7243    2.2421 H   0  0  0  0  0  0
   -0.2629   -0.6441   -0.9679 H   0  0  0  0  0  0
    1.8394    0.5532    0.7709 H   0  0  0  0  0  0
    4.5163   -2.0576   -1.7265 H   0  0  0  0  0  0
    6.8915   -1.7244   -1.2481 H   0  0  0  0  0  0
    7.6291    0.0687    0.2543 H   0  0  0  0  0  0
    3.5459    1.2614    0.8436 H   0  0  0  0  0  0
    7.8852    1.0573    2.3612 H   0  0  0  0  0  0
    0.5814    0.6887   -2.6722 H   0  0  0  0  0  0
   -1.1694    0.5375   -2.8852 H   0  0  0  0  0  0
    0.6475    2.8617   -3.6737 H   0  0  0  0  0  0
   -1.2009    4.3588   -3.5468 H   0  0  0  0  0  0
   -3.7893    4.5495   -2.7255 H   0  0  0  0  0  0
   -4.5123    2.9528   -2.4614 H   0  0  0  0  0  0
   -0.7138    4.0350   -1.2229 H   0  0  0  0  0  0
  1  2  1  0  0  0
  1 35  1  0  0  0
  1 36  1  0  0  0
  1 37  1  0  0  0
  2  3  1  0  0  0
  2  7  1  0  0  0
  2 38  1  0  0  0
  3  4  1  0  0  0
  3 39  1  0  0  0
  3 40  1  0  0  0
  4  5  1  0  0  0
  4 41  1  0  0  0
  4 42  1  0  0  0
  5  6  1  0  0  0
  5  8  1  0  0  0
  5 43  1  0  0  0
  6  7  1  0  0  0
  6 44  1  0  0  0
  6 45  1  0  0  0
  7 46  1  0  0  0
  7 47  1  0  0  0
  8  9  1  0  0  0
  8 23  1  0  0  0
  8 48  1  0  0  0
  9 10  1  0  0  0
  9 49  1  0  0  0
 10 11  2  0  0  0
 10 12  1  0  0  0
 12 13  2  0  0  0
 12 17  1  0  0  0
 13 14  1  0  0  0
 13 50  1  0  0  0
 14 15  2  0  0  0
 14 51  1  0  0  0
 15 16  1  0  0  0
 15 52  1  0  0  0
 16 17  2  0  0  0
 16 18  1  0  0  0
 17 53  1  0  0  0
 18 19  1  0  0  0
 18 22  1  0  0  0
 19 20  2  0  0  0
 19 54  1  0  0  0
 20 21  1  0  0  0
 21 22  2  0  0  0
 23 24  2  0  0  0
 23 25  1  0  0  0
 25 26  1  0  0  0
 25 34  1  0  0  0
 26 27  1  0  0  0
 26 55  1  0  0  0
 26 56  1  0  0  0
 27 28  1  0  0  0
 27 29  1  0  0  0
 27 57  1  0  0  0
 29 30  1  0  0  0
 29 34  1  0  0  0
 29 58  1  0  0  0
 30 31  1  0  0  0
 31 32  1  0  0  0
 31 59  1  0  0  0
 31 60  1  0  0  0
 32 33  2  0  0  0
 32 34  1  0  0  0
 34 61  1  0  0  0
M  END
> <chembl_id>
CHEMBL3648409

> <chembl_pref_name>
None

> <i_m_ct_stereo_status>
1

> <s_m_source_file>
sdf/inactives_sanitized.sdf

> <i_m_source_file_index>
136

> <i_lp_mmshare_version>
49012

> <i_f3d_flags>
0

> <s_epik_input>
TzFbQ0gyXUMoPU8pW0NASF0oW0NASF0xMilOKFtDSDJdW0NASF0yQ2wpQyg9TylbQ0BIXShbQ0BASF0oW0NIMl1bQ0gyXTMpW0NIMl1bQ0gyXVtDQEhdM1tDSDNdKVtOSF1DKD1PKWM0W2NIXVtjSF1bY0hdYyhbY0hdNCktbjVbY0hdbm5uNQ==

> <s_epik_cmdline>
J2VwaWtfcHl0aG9uJywgJy1waHQnLCAnMC41JywgJy1waCcsICc3LjUnLCAnLW50JywgJy1tYScsICcyMDAnLCAnLWltYWUnLCAnPGluZmlsZS5tYWU+JywgJy1vbWFlJywgJzxvdXRmaWxlLm1hZT4n

> <r_lp_tautomer_probability>
1

> <r_epik_Ionization_Penalty>
  0.0000

> <r_epik_Ionization_Penalty_Charging>
  0.0000

> <r_epik_Ionization_Penalty_Neutral>
  0.0000

> <r_epik_State_Penalty>
 -0.0000

> <r_epik_Charging_Adjusted_Penalty>
0

> <i_epik_Tot_Q>
0

> <i_epik_Tot_abs_Q>
0

> <s_lp_Force_Field>
OPLS3e

> <r_lp_Energy>
33.809802

> <b_lp_Chiralities_Consistent>
1

> <s_lp_Variant>
sdf/inactives_sanitized.sdf:136-1

$$$$
sdf/inactives_sanitized.sdf:137
                    3D
 Schrodinger Suite 2020-1.
 53 55  0  0  1  0            999 V2000
   -3.0701    2.2180    0.1780 C   0  0  0  0  0  0
   -1.9670    1.3726    0.4050 N   0  0  0  0  0  0
   -0.7001    1.4771   -0.0438 C   0  0  0  0  0  0
    0.0605    0.4884    0.4548 N   0  0  0  0  0  0
   -0.2712    2.3465   -0.8038 O   0  0  0  0  0  0
    1.4811    0.2672    0.1527 C   0  0  2  0  0  0
    1.7013   -0.2541   -1.2859 C   0  0  0  0  0  0
    2.8386    0.1347   -1.8858 N   0  0  0  0  0  0
    0.8778   -1.0077   -1.8082 O   0  0  0  0  0  0
    3.2548   -0.3107   -3.2117 C   0  0  0  0  0  0
    3.5822   -1.7469   -3.2564 C   0  0  0  0  0  0
    3.8402   -2.8743   -3.2912 N   0  0  0  0  0  0
    2.0886   -0.7127    1.1926 C   0  0  0  0  0  0
    2.0533   -0.2262    2.6623 C   0  0  0  0  0  0
    2.8186    1.0993    2.8649 C   0  0  0  0  0  0
    2.5372   -1.3335    3.6235 C   0  0  0  0  0  0
   -4.1490    4.2531   -0.5676 C   0  0  0  0  0  0
   -5.3967    3.7615   -0.1611 C   0  0  0  0  0  0
   -5.4611    2.4893    0.4222 C   0  0  0  0  0  0
   -4.3088    1.7275    0.5929 C   0  0  0  0  0  0
   -2.9941    3.4939   -0.4003 C   0  0  0  0  0  0
   -6.6437    4.5861   -0.3444 C   0  0  0  0  0  0
   -7.8404    4.1391   -0.0126 N   0  0  0  0  0  0
   -8.6895    5.1937   -0.3392 O   0  0  0  0  0  0
   -7.8732    6.1554   -0.8339 C   0  0  0  0  0  0
   -6.6141    5.8082   -0.8485 N   0  0  0  0  0  0
   -8.4595    7.4112   -1.2720 C   0  0  0  0  0  0
   -7.4750    8.7028   -1.9064 S   0  0  0  0  0  0
   -8.8703    9.7020   -2.1457 C   0  0  0  0  0  0
  -10.0367    9.0647   -1.7537 C   0  0  0  0  0  0
   -9.8047    7.7759   -1.2624 C   0  0  0  0  0  0
   -2.1790    0.5529    0.9543 H   0  0  0  0  0  0
   -0.3610   -0.1880    1.0740 H   0  0  0  0  0  0
    1.9884    1.2308    0.2341 H   0  0  0  0  0  0
    3.4853    0.7222   -1.3795 H   0  0  0  0  0  0
    2.4820   -0.1011   -3.9530 H   0  0  0  0  0  0
    4.1431    0.2462   -3.5096 H   0  0  0  0  0  0
    1.5687   -1.6706    1.1235 H   0  0  0  0  0  0
    3.1275   -0.9260    0.9327 H   0  0  0  0  0  0
    1.0108   -0.0369    2.9214 H   0  0  0  0  0  0
    3.4927    1.3136    2.0353 H   0  0  0  0  0  0
    3.4206    1.1048    3.7736 H   0  0  0  0  0  0
    2.1219    1.9347    2.9424 H   0  0  0  0  0  0
    3.4632   -1.0722    4.1360 H   0  0  0  0  0  0
    2.7233   -2.2743    3.1042 H   0  0  0  0  0  0
    1.7882   -1.5344    4.3902 H   0  0  0  0  0  0
   -4.0615    5.2322   -1.0156 H   0  0  0  0  0  0
   -6.4052    2.0795    0.7506 H   0  0  0  0  0  0
   -4.3892    0.7505    1.0480 H   0  0  0  0  0  0
   -2.0595    3.9279   -0.7173 H   0  0  0  0  0  0
   -8.7665   10.6953   -2.5573 H   0  0  0  0  0  0
  -11.0167    9.5137   -1.8202 H   0  0  0  0  0  0
  -10.5938    7.1278   -0.9098 H   0  0  0  0  0  0
  1 20  2  0  0  0
  1 21  1  0  0  0
  1  2  1  0  0  0
  2  3  1  0  0  0
  2 32  1  0  0  0
  3  5  2  0  0  0
  3  4  1  0  0  0
  4  6  1  0  0  0
  4 33  1  0  0  0
  6 13  1  0  0  0
  6  7  1  0  0  0
  6 34  1  0  0  0
  7  9  2  0  0  0
  7  8  1  0  0  0
  8 10  1  0  0  0
  8 35  1  0  0  0
 10 11  1  0  0  0
 10 36  1  0  0  0
 10 37  1  0  0  0
 11 12  3  0  0  0
 13 14  1  0  0  0
 13 38  1  0  0  0
 13 39  1  0  0  0
 14 16  1  0  0  0
 14 15  1  0  0  0
 14 40  1  0  0  0
 15 41  1  0  0  0
 15 42  1  0  0  0
 15 43  1  0  0  0
 16 44  1  0  0  0
 16 45  1  0  0  0
 16 46  1  0  0  0
 17 18  1  0  0  0
 17 21  2  0  0  0
 17 47  1  0  0  0
 18 19  2  0  0  0
 18 22  1  0  0  0
 19 20  1  0  0  0
 19 48  1  0  0  0
 20 49  1  0  0  0
 21 50  1  0  0  0
 22 23  2  0  0  0
 22 26  1  0  0  0
 23 24  1  0  0  0
 24 25  1  0  0  0
 25 26  2  0  0  0
 25 27  1  0  0  0
 27 28  1  0  0  0
 27 31  2  0  0  0
 28 29  1  0  0  0
 29 30  2  0  0  0
 29 51  1  0  0  0
 30 31  1  0  0  0
 30 52  1  0  0  0
 31 53  1  0  0  0
M  END
> <chembl_id>
CHEMBL1651358

> <chembl_pref_name>
None

> <i_m_ct_stereo_status>
1

> <s_m_source_file>
sdf/inactives_sanitized.sdf

> <i_m_source_file_index>
137

> <i_lp_mmshare_version>
49012

> <i_f3d_flags>
0

> <s_epik_input>
TiNDW0NIMl1bTkhdQyg9TylbQ0BIXShbQ0gyXVtDSF0oW0NIM10pW0NIM10pW05IXUMoPU8pW05IXWMxW2NIXVtjSF1jKFtjSF1bY0hdMSktYzJub2MobjIpLWMzc1tjSF1bY0hdW2NIXTM=

> <s_epik_cmdline>
J2VwaWtfcHl0aG9uJywgJy1waHQnLCAnMC41JywgJy1waCcsICc3LjUnLCAnLW50JywgJy1tYScsICcyMDAnLCAnLWltYWUnLCAnPGluZmlsZS5tYWU+JywgJy1vbWFlJywgJzxvdXRmaWxlLm1hZT4n

> <r_lp_tautomer_probability>
1

> <r_epik_Ionization_Penalty>
  0.0000

> <r_epik_Ionization_Penalty_Charging>
  0.0000

> <r_epik_Ionization_Penalty_Neutral>
  0.0000

> <r_epik_State_Penalty>
 -0.0000

> <r_epik_Charging_Adjusted_Penalty>
0

> <i_epik_Tot_Q>
0

> <i_epik_Tot_abs_Q>
0

> <s_lp_Force_Field>
OPLS3e

> <r_lp_Energy>
19.483131

> <b_lp_Chiralities_Consistent>
1

> <s_lp_Variant>
sdf/inactives_sanitized.sdf:137-1

$$$$
sdf/inactives_sanitized.sdf:138
                    3D
 Schrodinger Suite 2020-1.
 66 67  0  0  1  0            999 V2000
   -2.7423    1.8302   -1.1310 C   0  0  0  0  0  0
   -0.2348    0.0939   -0.1912 C   0  0  0  0  0  0
   -3.2738    0.6196   -1.9950 C   0  0  0  0  0  0
   -0.8396    1.2240    0.2246 N   0  0  0  0  0  0
    1.8040   -0.0375   -2.6572 C   0  0  0  0  0  0
    1.3125    0.1262   -0.2184 C   0  0  2  0  0  0
   -2.2861    1.4871    0.2909 C   0  0  1  0  0  0
    1.8668   -0.5880   -1.3818 N   0  0  0  0  0  0
   -3.0004    0.7711   -3.3044 N   0  0  0  0  0  0
   -2.7147    2.9694   -1.6059 O   0  0  0  0  0  0
   -0.8337   -0.9343   -0.5104 O   0  0  0  0  0  0
    1.3714    1.0805   -2.9503 O   0  0  0  0  0  0
   -3.8513   -0.3370   -1.4764 O   0  0  0  0  0  0
    2.2718   -0.9376   -3.5424 O   0  0  0  0  0  0
    1.8870   -0.4968    1.0832 C   0  0  0  0  0  0
   -2.8672   -3.9898   -4.0612 N   0  0  0  0  0  0
   -2.6533   -1.5771   -4.1656 C   0  0  0  0  0  0
   -3.3146   -0.2124   -4.3431 C   0  0  0  0  0  0
    2.2779   -0.6547   -4.9367 C   0  0  0  0  0  0
    2.5821   -1.9249   -5.7097 C   0  0  0  0  0  0
   -3.4054   -2.7550   -4.2347 C   0  0  0  0  0  0
   -2.5903    2.6282    1.2964 C   0  0  0  0  0  0
    3.4207   -0.3699    1.2568 C   0  0  0  0  0  0
   -1.5367   -4.0702   -3.8027 C   0  0  0  0  0  0
   -1.2829   -1.6882   -3.9029 C   0  0  0  0  0  0
    3.8842   -2.4303   -5.7314 C   0  0  0  0  0  0
    1.5597   -2.5847   -6.3961 C   0  0  0  0  0  0
    3.9102   -1.1852    2.4734 C   0  0  0  0  0  0
    3.8891    1.1006    1.3126 C   0  0  0  0  0  0
   -4.0880    2.9035    1.5237 C   0  0  0  0  0  0
   -0.7124   -2.9478   -3.7139 C   0  0  0  0  0  0
    1.8389   -3.7531   -7.1003 C   0  0  0  0  0  0
    4.1629   -3.5982   -6.4368 C   0  0  0  0  0  0
    3.1391   -4.2544   -7.1175 C   0  0  0  0  0  0
   -0.2566    2.0107    0.4714 H   0  0  0  0  0  0
    1.6348    1.1695   -0.2597 H   0  0  0  0  0  0
   -2.7937    0.6005    0.6782 H   0  0  0  0  0  0
    2.1622   -1.5466   -1.2678 H   0  0  0  0  0  0
   -2.5195    1.6071   -3.6041 H   0  0  0  0  0  0
    1.4103   -0.0405    1.9533 H   0  0  0  0  0  0
    1.6104   -1.5528    1.1220 H   0  0  0  0  0  0
   -2.9857    0.1964   -5.2989 H   0  0  0  0  0  0
   -4.3989   -0.3148   -4.4209 H   0  0  0  0  0  0
    1.3149   -0.2524   -5.2581 H   0  0  0  0  0  0
    3.0308    0.1010   -5.1659 H   0  0  0  0  0  0
   -4.4682   -2.7243   -4.4252 H   0  0  0  0  0  0
   -2.1445    2.3720    2.2590 H   0  0  0  0  0  0
   -2.0911    3.5505    0.9928 H   0  0  0  0  0  0
    3.8893   -0.8228    0.3821 H   0  0  0  0  0  0
   -1.1322   -5.0618   -3.6638 H   0  0  0  0  0  0
   -0.6701   -0.8025   -3.8371 H   0  0  0  0  0  0
    4.6769   -1.9219   -5.2018 H   0  0  0  0  0  0
    0.5505   -2.1984   -6.3819 H   0  0  0  0  0  0
    4.3151   -0.5577    3.2672 H   0  0  0  0  0  0
    4.6955   -1.8827    2.1804 H   0  0  0  0  0  0
    3.1096   -1.7752    2.9203 H   0  0  0  0  0  0
    3.0635    1.7853    1.5083 H   0  0  0  0  0  0
    4.3384    1.3956    0.3638 H   0  0  0  0  0  0
    4.6377    1.2766    2.0847 H   0  0  0  0  0  0
   -4.2298    3.6718    2.2841 H   0  0  0  0  0  0
   -4.6079    2.0060    1.8607 H   0  0  0  0  0  0
   -4.5776    3.2513    0.6137 H   0  0  0  0  0  0
    0.3420   -3.0505   -3.5041 H   0  0  0  0  0  0
    1.0514   -4.2684   -7.6304 H   0  0  0  0  0  0
    5.1678   -3.9939   -6.4557 H   0  0  0  0  0  0
    3.3556   -5.1605   -7.6641 H   0  0  0  0  0  0
  1  3  1  0  0  0
  1  7  1  0  0  0
  1 10  2  0  0  0
  2  4  1  0  0  0
  2  6  1  0  0  0
  2 11  2  0  0  0
  3  9  1  0  0  0
  3 13  2  0  0  0
  4  7  1  0  0  0
  4 35  1  0  0  0
  5  8  1  0  0  0
  5 12  2  0  0  0
  5 14  1  0  0  0
  6  8  1  0  0  0
  6 15  1  0  0  0
  6 36  1  0  0  0
  7 22  1  0  0  0
  7 37  1  0  0  0
  8 38  1  0  0  0
  9 18  1  0  0  0
  9 39  1  0  0  0
 14 19  1  0  0  0
 15 23  1  0  0  0
 15 40  1  0  0  0
 15 41  1  0  0  0
 16 21  2  0  0  0
 16 24  1  0  0  0
 17 18  1  0  0  0
 17 21  1  0  0  0
 17 25  2  0  0  0
 18 42  1  0  0  0
 18 43  1  0  0  0
 19 20  1  0  0  0
 19 44  1  0  0  0
 19 45  1  0  0  0
 20 26  2  0  0  0
 20 27  1  0  0  0
 21 46  1  0  0  0
 22 30  1  0  0  0
 22 47  1  0  0  0
 22 48  1  0  0  0
 23 28  1  0  0  0
 23 29  1  0  0  0
 23 49  1  0  0  0
 24 31  2  0  0  0
 24 50  1  0  0  0
 25 31  1  0  0  0
 25 51  1  0  0  0
 26 33  1  0  0  0
 26 52  1  0  0  0
 27 32  2  0  0  0
 27 53  1  0  0  0
 28 54  1  0  0  0
 28 55  1  0  0  0
 28 56  1  0  0  0
 29 57  1  0  0  0
 29 58  1  0  0  0
 29 59  1  0  0  0
 30 60  1  0  0  0
 30 61  1  0  0  0
 30 62  1  0  0  0
 31 63  1  0  0  0
 32 34  1  0  0  0
 32 64  1  0  0  0
 33 34  2  0  0  0
 33 65  1  0  0  0
 34 66  1  0  0  0
M  END
> <chembl_id>
CHEMBL439798

> <chembl_pref_name>
None

> <s_m_source_file>
sdf/inactives_sanitized.sdf

> <i_m_source_file_index>
138

> <i_lp_mmshare_version>
49012

> <i_m_ct_stereo_status>
1

> <i_f3d_flags>
0

> <s_epik_input>
W2NIXTFbY0hdW2NIXW5bY0hdYzFbQ0gyXVtOSF1DKD1PKUMoPU8pW0NASF0oW0NIMl1bQ0gzXSlbTkhdQyg9TylbQ0BASF0oW0NIMl1bQ0hdKFtDSDNdKVtDSDNdKVtOSF1DKD1PKU9bQ0gyXWMyW2NIXVtjSF1bY0hdW2NIXVtjSF0y

> <s_epik_cmdline>
J2VwaWtfcHl0aG9uJywgJy1waHQnLCAnMC41JywgJy1waCcsICc3LjUnLCAnLW50JywgJy1tYScsICcyMDAnLCAnLWltYWUnLCAnPGluZmlsZS5tYWU+JywgJy1vbWFlJywgJzxvdXRmaWxlLm1hZT4n

> <r_lp_tautomer_probability>
1

> <r_epik_Ionization_Penalty>
  0.0016

> <r_epik_Ionization_Penalty_Charging>
  0.0000

> <r_epik_Ionization_Penalty_Neutral>
  0.0016

> <r_epik_State_Penalty>
 -0.0000

> <r_epik_Charging_Adjusted_Penalty>
0

> <i_epik_Tot_Q>
0

> <i_epik_Tot_abs_Q>
0

> <s_epik_Chemistry_Notes>
This compound has an ester and may undergo hydrolysis at high or low pH.

> <s_lp_Force_Field>
OPLS3e

> <r_lp_Energy>
37.208478

> <b_lp_Chiralities_Consistent>
1

> <s_lp_Variant>
sdf/inactives_sanitized.sdf:138-1

$$$$
sdf/inactives_sanitized.sdf:139
                    3D
 Schrodinger Suite 2020-1.
 77 79  0  0  1  0            999 V2000
    0.2983   -4.0540    1.7201 O   0  0  0  0  0  0
   -0.9994   -3.9701    1.3751 C   0  0  0  0  0  0
   -1.7791   -4.2549    2.4908 N   0  0  0  0  0  0
   -1.4109   -3.6591    0.2540 O   0  0  0  0  0  0
    1.3181   -3.6999    0.7943 C   0  0  0  0  0  0
    2.6653   -3.6954    1.4929 C   0  0  0  0  0  0
    2.9476   -2.7192    2.4515 C   0  0  0  0  0  0
    4.1849   -2.7103    3.0895 C   0  0  0  0  0  0
    5.1341   -3.6784    2.7673 C   0  0  0  0  0  0
    4.8576   -4.6548    1.8122 C   0  0  0  0  0  0
    3.6207   -4.6625    1.1720 C   0  0  0  0  0  0
   -3.2459   -4.1305    2.4532 C   0  0  2  0  0  0
   -3.6578   -2.6765    2.7598 C   0  0  0  0  0  0
   -3.8983   -5.1760    3.3918 C   0  0  0  0  0  0
   -3.6190   -6.6269    3.0324 C   0  0  0  0  0  0
   -4.3777   -7.2647    2.0280 C   0  0  0  0  0  0
   -4.0568   -8.5557    1.6290 C   0  0  0  0  0  0
   -2.9719   -9.2139    2.1947 C   0  0  0  0  0  0
   -2.1908   -8.5835    3.1553 C   0  0  0  0  0  0
   -2.4957   -7.2931    3.5680 C   0  0  0  0  0  0
   -4.0198   -1.9275    1.7040 N   0  0  0  0  0  0
   -3.6012   -2.2566    3.9168 O   0  0  0  0  0  0
   -4.2257   -0.4811    1.7605 C   0  0  0  0  0  0
   -2.9261    0.3266    1.9844 C   0  0  1  0  0  0
   -1.6616   -0.1445    1.3282 C   0  0  1  0  0  0
   -2.3560    0.9819    0.8713 O   0  0  0  0  0  0
   -0.3142    0.0746    2.0474 C   0  0  0  0  0  0
    0.8953    0.3228    1.1305 C   0  0  0  0  0  0
    0.7275    0.2109   -0.1989 N   0  0  0  0  0  0
    1.9812    0.5968    1.6410 O   0  0  0  0  0  0
    1.7752    0.4009   -1.2015 C   0  0  2  0  0  0
    1.1586    0.7552   -2.5615 C   0  0  0  0  0  0
    2.6391   -0.8702   -1.3022 C   0  0  0  0  0  0
    1.9775    1.3866   -3.4244 N   0  0  0  0  0  0
   -0.0083    0.4490   -2.8132 O   0  0  0  0  0  0
    1.6555    1.7804   -4.8071 C   0  0  2  0  0  0
    1.5110    0.5519   -5.7049 C   0  0  0  0  0  0
    2.7860    2.6879   -5.3334 C   0  0  0  0  0  0
    0.8313    0.8567   -6.8334 O   0  0  0  0  0  0
    1.9586   -0.5662   -5.4293 O   0  0  0  0  0  0
    0.5717   -0.1373   -7.8143 C   0  0  0  0  0  0
   -1.3326   -4.4799    3.3677 H   0  0  0  0  0  0
    1.3271   -4.4003   -0.0425 H   0  0  0  0  0  0
    1.1323   -2.7073    0.3816 H   0  0  0  0  0  0
    2.2105   -1.9709    2.7036 H   0  0  0  0  0  0
    4.4070   -1.9564    3.8302 H   0  0  0  0  0  0
    6.0936   -3.6723    3.2633 H   0  0  0  0  0  0
    5.5989   -5.4024    1.5700 H   0  0  0  0  0  0
    3.4074   -5.4194    0.4313 H   0  0  0  0  0  0
   -3.5922   -4.3822    1.4463 H   0  0  0  0  0  0
   -3.5713   -5.0134    4.4206 H   0  0  0  0  0  0
   -4.9809   -5.0365    3.4002 H   0  0  0  0  0  0
   -5.2100   -6.7524    1.5680 H   0  0  0  0  0  0
   -4.6477   -9.0465    0.8695 H   0  0  0  0  0  0
   -2.7264  -10.2163    1.8763 H   0  0  0  0  0  0
   -1.3381   -9.0954    3.5763 H   0  0  0  0  0  0
   -1.8706   -6.8031    4.3002 H   0  0  0  0  0  0
   -4.0521   -2.3542    0.7889 H   0  0  0  0  0  0
   -4.6806   -0.1791    0.8166 H   0  0  0  0  0  0
   -4.9586   -0.2376    2.5320 H   0  0  0  0  0  0
   -2.8746    0.8588    2.9348 H   0  0  0  0  0  0
   -1.6803   -1.0019    0.6550 H   0  0  0  0  0  0
   -0.3902    0.9165    2.7370 H   0  0  0  0  0  0
   -0.0963   -0.8054    2.6537 H   0  0  0  0  0  0
   -0.1869   -0.0121   -0.5661 H   0  0  0  0  0  0
    2.4056    1.2384   -0.8961 H   0  0  0  0  0  0
    3.4374   -0.7492   -2.0353 H   0  0  0  0  0  0
    2.0448   -1.7338   -1.6027 H   0  0  0  0  0  0
    3.1120   -1.1074   -0.3487 H   0  0  0  0  0  0
    2.9213    1.5914   -3.1294 H   0  0  0  0  0  0
    0.7324    2.3648   -4.7929 H   0  0  0  0  0  0
    2.5800    3.0428   -6.3444 H   0  0  0  0  0  0
    3.7488    2.1737   -5.3543 H   0  0  0  0  0  0
    2.9039    3.5716   -4.7046 H   0  0  0  0  0  0
    0.0272    0.3019   -8.6502 H   0  0  0  0  0  0
   -0.0342   -0.9455   -7.4015 H   0  0  0  0  0  0
    1.5004   -0.5610   -8.1993 H   0  0  0  0  0  0
  1  2  1  0  0  0
  1  5  1  0  0  0
  2  3  1  0  0  0
  2  4  2  0  0  0
  3 12  1  0  0  0
  3 42  1  0  0  0
  5  6  1  0  0  0
  5 43  1  0  0  0
  5 44  1  0  0  0
  6 11  1  0  0  0
  6  7  2  0  0  0
  7  8  1  0  0  0
  7 45  1  0  0  0
  8  9  2  0  0  0
  8 46  1  0  0  0
  9 10  1  0  0  0
  9 47  1  0  0  0
 10 11  2  0  0  0
 10 48  1  0  0  0
 11 49  1  0  0  0
 12 13  1  0  0  0
 12 14  1  0  0  0
 12 50  1  0  0  0
 13 21  1  0  0  0
 13 22  2  0  0  0
 14 15  1  0  0  0
 14 51  1  0  0  0
 14 52  1  0  0  0
 15 20  1  0  0  0
 15 16  2  0  0  0
 16 17  1  0  0  0
 16 53  1  0  0  0
 17 18  2  0  0  0
 17 54  1  0  0  0
 18 19  1  0  0  0
 18 55  1  0  0  0
 19 20  2  0  0  0
 19 56  1  0  0  0
 20 57  1  0  0  0
 21 23  1  0  0  0
 21 58  1  0  0  0
 23 24  1  0  0  0
 23 59  1  0  0  0
 23 60  1  0  0  0
 24 25  1  0  0  0
 24 26  1  0  0  0
 24 61  1  0  0  0
 25 26  1  0  0  0
 25 27  1  0  0  0
 25 62  1  0  0  0
 27 28  1  0  0  0
 27 63  1  0  0  0
 27 64  1  0  0  0
 28 29  1  0  0  0
 28 30  2  0  0  0
 29 31  1  0  0  0
 29 65  1  0  0  0
 31 32  1  0  0  0
 31 33  1  0  0  0
 31 66  1  0  0  0
 32 34  1  0  0  0
 32 35  2  0  0  0
 33 67  1  0  0  0
 33 68  1  0  0  0
 33 69  1  0  0  0
 34 36  1  0  0  0
 34 70  1  0  0  0
 36 37  1  0  0  0
 36 38  1  0  0  0
 36 71  1  0  0  0
 37 39  1  0  0  0
 37 40  2  0  0  0
 38 72  1  0  0  0
 38 73  1  0  0  0
 38 74  1  0  0  0
 39 41  1  0  0  0
 41 75  1  0  0  0
 41 76  1  0  0  0
 41 77  1  0  0  0
M  END
> <chembl_id>
CHEMBL500638

> <chembl_pref_name>
None

> <i_m_ct_stereo_status>
1

> <s_m_source_file>
sdf/inactives_sanitized.sdf

> <i_m_source_file_index>
139

> <i_lp_mmshare_version>
49012

> <i_f3d_flags>
0

> <s_epik_input>
W2NIXTFbY0hdW2NIXVtjSF1bY0hdYzFbQ0gyXU9DKD1PKVtOSF1bQ0BASF0oW0NIMl1jMltjSF1bY0hdW2NIXVtjSF1bY0hdMilDKD1PKVtOSF1bQ0gyXVtDQEhdM1tDQEBIXShPMylbQ0gyXUMoPU8pW05IXVtDQEBIXShbQ0gzXSlDKD1PKVtOSF1bQ0BASF0oW0NIM10pQyg9TylPW0NIM10=

> <s_epik_cmdline>
J2VwaWtfcHl0aG9uJywgJy1waHQnLCAnMC41JywgJy1waCcsICc3LjUnLCAnLW50JywgJy1tYScsICcyMDAnLCAnLWltYWUnLCAnPGluZmlsZS5tYWU+JywgJy1vbWFlJywgJzxvdXRmaWxlLm1hZT4n

> <r_lp_tautomer_probability>
1

> <r_epik_Ionization_Penalty>
  0.0000

> <r_epik_Ionization_Penalty_Charging>
  0.0000

> <r_epik_Ionization_Penalty_Neutral>
  0.0000

> <r_epik_State_Penalty>
 -0.0000

> <r_epik_Charging_Adjusted_Penalty>
0

> <i_epik_Tot_Q>
0

> <i_epik_Tot_abs_Q>
0

> <s_epik_Chemistry_Notes>
This compound has an ester and may undergo hydrolysis at high or low pH.

> <s_lp_Force_Field>
OPLS3e

> <r_lp_Energy>
35.736666

> <b_lp_Chiralities_Consistent>
1

> <s_lp_Variant>
sdf/inactives_sanitized.sdf:139-1

$$$$
sdf/inactives_sanitized.sdf:140
                    3D
 Schrodinger Suite 2020-1.
 72 75  0  0  1  0            999 V2000
   -3.9483    1.6672   -0.3375 C   0  0  0  0  0  0
   -2.4931    1.6955    0.1065 C   0  0  0  0  0  0
   -1.8735    0.3920   -0.4172 C   0  0  1  0  0  0
   -2.6553    0.1695   -1.6669 N   0  0  2  0  0  0
   -4.0577    0.5843   -1.4133 C   0  0  0  0  0  0
   -0.3588    0.5323   -0.6699 C   0  0  0  0  0  0
    0.4377   -0.1746    0.1593 N   0  0  0  0  0  0
    0.0548    1.3143   -1.5268 O   0  0  0  0  0  0
   -2.3731   -1.2751   -2.6596 S   0  0  0  0  0  0
   -3.3439   -1.0121   -4.1420 C   0  0  0  0  0  0
   -0.9630   -1.2914   -3.0657 O   0  0  0  0  0  0
   -2.9511   -2.4167   -1.9407 O   0  0  0  0  0  0
    1.9072   -0.2092    0.3314 C   0  0  2  0  0  0
    2.6533   -0.1796   -1.0077 C   0  0  0  0  0  0
    2.2899   -1.4760    1.1438 C   0  0  0  0  0  0
    1.6824   -1.5594    2.5359 C   0  0  0  0  0  0
    1.6357   -0.8231    4.8458 C   0  0  0  0  0  0
    0.4521   -1.5229    5.0452 C   0  0  0  0  0  0
   -0.1369   -2.2197    3.9976 C   0  0  0  0  0  0
    0.4588   -2.2321    2.7432 C   0  0  0  0  0  0
    2.8645   -1.1879   -1.6888 O   0  0  0  0  0  0
   -4.6157   -1.5778   -4.2564 C   0  0  0  0  0  0
   -5.3743   -1.3478   -5.4006 C   0  0  0  0  0  0
   -4.8662   -0.5453   -6.4242 C   0  0  0  0  0  0
   -2.8349   -0.2079   -5.1631 C   0  0  0  0  0  0
   -3.5951    0.0214   -6.3068 C   0  0  0  0  0  0
   -5.6902   -0.3050   -7.6762 C   0  0  0  0  0  0
    3.1954    1.2389   -1.4688 C   0  0  0  0  0  0
    3.6982    1.2180   -2.7172 N   0  0  0  0  0  0
    2.2476   -0.8241    3.5992 C   0  0  0  0  0  0
    3.1390    2.2250   -0.7318 O   0  0  0  0  0  0
    4.2566    2.3822   -3.3999 C   0  0  0  0  0  0
    3.1973    3.3778   -3.9130 C   0  0  0  0  0  0
    3.8121    4.5609   -4.6461 C   0  0  0  0  0  0
    4.0561    4.4816   -6.0198 C   0  0  0  0  0  0
    4.6268    5.5626   -6.6870 C   0  0  0  0  0  0
    4.9510    6.7181   -5.9790 C   0  0  0  0  0  0
    4.7101    6.8029   -4.6091 C   0  0  0  0  0  0
    4.1401    5.7223   -3.9412 C   0  0  0  0  0  0
   -4.2430    2.6395   -0.7347 H   0  0  0  0  0  0
   -4.6136    1.4455    0.4983 H   0  0  0  0  0  0
   -1.9899    2.5846   -0.2808 H   0  0  0  0  0  0
   -2.4233    1.7510    1.1940 H   0  0  0  0  0  0
   -2.0526   -0.4191    0.2928 H   0  0  0  0  0  0
   -4.5941    0.8287   -2.3306 H   0  0  0  0  0  0
   -4.6078   -0.2767   -1.0302 H   0  0  0  0  0  0
   -0.0447   -0.6421    0.9131 H   0  0  0  0  0  0
    2.1747    0.6402    0.9622 H   0  0  0  0  0  0
    2.0053   -2.3796    0.6002 H   0  0  0  0  0  0
    3.3746   -1.5265    1.2578 H   0  0  0  0  0  0
    2.0769   -0.2689    5.6610 H   0  0  0  0  0  0
   -0.0188   -1.5147    6.0173 H   0  0  0  0  0  0
   -1.0657   -2.7475    4.1571 H   0  0  0  0  0  0
   -0.0161   -2.7611    1.9297 H   0  0  0  0  0  0
   -5.0203   -2.1916   -3.4651 H   0  0  0  0  0  0
   -6.3563   -1.7901   -5.4874 H   0  0  0  0  0  0
   -1.8563    0.2409   -5.0720 H   0  0  0  0  0  0
   -3.1971    0.6420   -7.0966 H   0  0  0  0  0  0
   -5.0485   -0.1542   -8.5453 H   0  0  0  0  0  0
   -6.3270    0.5715   -7.5533 H   0  0  0  0  0  0
   -6.3209   -1.1665   -7.8999 H   0  0  0  0  0  0
    3.6910    0.3478   -3.2297 H   0  0  0  0  0  0
    3.1564   -0.2602    3.4471 H   0  0  0  0  0  0
    4.9813    2.8988   -2.7667 H   0  0  0  0  0  0
    4.8649    2.0424   -4.2389 H   0  0  0  0  0  0
    2.4912    2.8704   -4.5726 H   0  0  0  0  0  0
    2.5923    3.7492   -3.0838 H   0  0  0  0  0  0
    3.8071    3.5850   -6.5687 H   0  0  0  0  0  0
    4.8177    5.5055   -7.7484 H   0  0  0  0  0  0
    5.3942    7.5559   -6.4970 H   0  0  0  0  0  0
    4.9647    7.7023   -4.0679 H   0  0  0  0  0  0
    3.9558    5.7872   -2.8785 H   0  0  0  0  0  0
  1  5  1  0  0  0
  1  2  1  0  0  0
  1 40  1  0  0  0
  1 41  1  0  0  0
  2  3  1  0  0  0
  2 42  1  0  0  0
  2 43  1  0  0  0
  3  6  1  0  0  0
  3  4  1  0  0  0
  3 44  1  0  0  0
  4  5  1  0  0  0
  4  9  1  0  0  0
  5 45  1  0  0  0
  5 46  1  0  0  0
  6  7  1  0  0  0
  6  8  2  0  0  0
  7 13  1  0  0  0
  7 47  1  0  0  0
  9 10  1  0  0  0
  9 11  2  0  0  0
  9 12  2  0  0  0
 10 22  2  0  0  0
 10 25  1  0  0  0
 13 14  1  0  0  0
 13 15  1  0  0  0
 13 48  1  0  0  0
 14 21  2  0  0  0
 14 28  1  0  0  0
 15 16  1  0  0  0
 15 49  1  0  0  0
 15 50  1  0  0  0
 16 20  2  0  0  0
 16 30  1  0  0  0
 17 30  2  0  0  0
 17 18  1  0  0  0
 17 51  1  0  0  0
 18 19  2  0  0  0
 18 52  1  0  0  0
 19 20  1  0  0  0
 19 53  1  0  0  0
 20 54  1  0  0  0
 22 23  1  0  0  0
 22 55  1  0  0  0
 23 24  2  0  0  0
 23 56  1  0  0  0
 24 26  1  0  0  0
 24 27  1  0  0  0
 25 26  2  0  0  0
 25 57  1  0  0  0
 26 58  1  0  0  0
 27 59  1  0  0  0
 27 60  1  0  0  0
 27 61  1  0  0  0
 28 29  1  0  0  0
 28 31  2  0  0  0
 29 32  1  0  0  0
 29 62  1  0  0  0
 30 63  1  0  0  0
 32 33  1  0  0  0
 32 64  1  0  0  0
 32 65  1  0  0  0
 33 34  1  0  0  0
 33 66  1  0  0  0
 33 67  1  0  0  0
 34 35  2  0  0  0
 34 39  1  0  0  0
 35 36  1  0  0  0
 35 68  1  0  0  0
 36 37  2  0  0  0
 36 69  1  0  0  0
 37 38  1  0  0  0
 37 70  1  0  0  0
 38 39  2  0  0  0
 38 71  1  0  0  0
 39 72  1  0  0  0
M  END
> <chembl_id>
CHEMBL212177

> <chembl_pref_name>
None

> <i_m_ct_stereo_status>
1

> <s_m_source_file>
sdf/inactives_sanitized.sdf

> <i_m_source_file_index>
140

> <i_lp_mmshare_version>
49012

> <i_f3d_flags>
0

> <s_epik_input>
W2NIXTFbY0hdYyhbQ0gzXSlbY0hdW2NIXWMxUyg9TykoPU8pTjJbQ0gyXVtDSDJdW0NIMl1bQ0BASF0yQyg9TylbTkhdW0NAQEhdKFtDSDJdYzNbY0hdW2NIXVtjSF1bY0hdW2NIXTMpQyg9TylDKD1PKVtOSF1bQ0gyXVtDSDJdYzRbY0hdW2NIXVtjSF1bY0hdW2NIXTQ=

> <s_epik_cmdline>
J2VwaWtfcHl0aG9uJywgJy1waHQnLCAnMC41JywgJy1waCcsICc3LjUnLCAnLW50JywgJy1tYScsICcyMDAnLCAnLWltYWUnLCAnPGluZmlsZS5tYWU+JywgJy1vbWFlJywgJzxvdXRmaWxlLm1hZT4n

> <r_lp_tautomer_probability>
1

> <r_epik_Ionization_Penalty>
  0.0000

> <r_epik_Ionization_Penalty_Charging>
  0.0000

> <r_epik_Ionization_Penalty_Neutral>
  0.0000

> <r_epik_State_Penalty>
 -0.0000

> <r_epik_Charging_Adjusted_Penalty>
0

> <i_epik_Tot_Q>
0

> <i_epik_Tot_abs_Q>
0

> <s_lp_Force_Field>
OPLS3e

> <r_lp_Energy>
46.538462

> <b_lp_Chiralities_Consistent>
1

> <s_lp_Variant>
sdf/inactives_sanitized.sdf:140-1

$$$$
sdf/inactives_sanitized.sdf:141
                    3D
 Schrodinger Suite 2020-1.
 71 74  0  0  1  0            999 V2000
   -4.0313    1.6643   -0.3239 C   0  0  0  0  0  0
   -2.5824    1.6869    0.1418 C   0  0  0  0  0  0
   -1.9444    0.4008   -0.4045 C   0  0  1  0  0  0
   -2.7292    0.1752   -1.6521 N   0  0  2  0  0  0
   -4.1355    0.5653   -1.3831 C   0  0  0  0  0  0
   -0.4340    0.5687   -0.6677 C   0  0  0  0  0  0
    0.3802   -0.1451    0.1376 N   0  0  0  0  0  0
   -0.0398    1.3719   -1.5141 O   0  0  0  0  0  0
   -2.4332   -1.2667   -2.6456 S   0  0  0  0  0  0
   -3.4204   -1.0265   -4.1220 C   0  0  0  0  0  0
   -1.0257   -1.2619   -3.0613 O   0  0  0  0  0  0
   -2.9883   -2.4153   -1.9198 O   0  0  0  0  0  0
    1.8522   -0.1734    0.2876 C   0  0  2  0  0  0
    2.5767   -0.1077   -1.0621 C   0  0  0  0  0  0
    2.2527   -1.4595    1.0606 C   0  0  0  0  0  0
    1.6769   -1.5763    2.4636 C   0  0  0  0  0  0
    1.7174   -0.9352    4.8018 C   0  0  0  0  0  0
    0.5071   -1.5874    5.0020 C   0  0  0  0  0  0
   -0.1381   -2.2120    3.9419 C   0  0  0  0  0  0
    0.4281   -2.2005    2.6740 C   0  0  0  0  0  0
    2.7687   -1.0968   -1.7764 O   0  0  0  0  0  0
   -4.7114   -1.5504   -4.1907 C   0  0  0  0  0  0
   -5.4835   -1.3436   -5.3300 C   0  0  0  0  0  0
   -4.9769   -0.6086   -6.4119 C   0  0  0  0  0  0
   -2.9062   -0.2859   -5.1860 C   0  0  0  0  0  0
   -3.6795   -0.0823   -6.3256 C   0  0  0  0  0  0
   -5.8011   -0.3898   -7.6266 N   0  3  0  0  0  0
    3.1273    1.3200   -1.4862 C   0  0  0  0  0  0
    3.7097    1.3080   -2.6998 N   0  0  0  0  0  0
    2.2995   -0.9114    3.5412 C   0  0  0  0  0  0
    3.0142    2.3032   -0.7518 O   0  0  0  0  0  0
    4.3095    2.4761   -3.3390 C   0  0  0  0  0  0
    3.2858    3.4715   -3.9198 C   0  0  0  0  0  0
    3.9458    4.6319   -4.6502 C   0  0  0  0  0  0
    4.2129    4.5351   -6.0186 C   0  0  0  0  0  0
    4.8243    5.5949   -6.6837 C   0  0  0  0  0  0
    5.1670    6.7467   -5.9784 C   0  0  0  0  0  0
    4.9041    6.8489   -4.6138 C   0  0  0  0  0  0
    4.2923    5.7897   -3.9481 C   0  0  0  0  0  0
   -5.3207    0.2530   -8.5562 O   0  0  0  0  0  0
   -6.9354   -0.8591   -7.6603 O   0  5  0  0  0  0
   -4.3066    2.6318   -0.7461 H   0  0  0  0  0  0
   -4.7153    1.4688    0.5032 H   0  0  0  0  0  0
   -2.0793    2.5906   -0.2103 H   0  0  0  0  0  0
   -2.5308    1.7109    1.2315 H   0  0  0  0  0  0
   -2.1026   -0.4214    0.2979 H   0  0  0  0  0  0
   -4.6639   -0.3029   -0.9859 H   0  0  0  0  0  0
   -4.6904    0.7894   -2.2944 H   0  0  0  0  0  0
   -0.0873   -0.6325    0.8883 H   0  0  0  0  0  0
    2.1258    0.6615    0.9353 H   0  0  0  0  0  0
    1.9523   -2.3489    0.5026 H   0  0  0  0  0  0
    3.3397   -1.5161    1.1476 H   0  0  0  0  0  0
    2.2031   -0.4365    5.6277 H   0  0  0  0  0  0
    0.0590   -1.5983    5.9847 H   0  0  0  0  0  0
   -1.0874   -2.7015    4.1026 H   0  0  0  0  0  0
   -0.0902   -2.6718    1.8515 H   0  0  0  0  0  0
   -5.1217   -2.1142   -3.3658 H   0  0  0  0  0  0
   -6.4801   -1.7596   -5.3627 H   0  0  0  0  0  0
   -1.9115    0.1326   -5.1343 H   0  0  0  0  0  0
   -3.2610    0.4907   -7.1403 H   0  0  0  0  0  0
    3.7442    0.4390   -3.2134 H   0  0  0  0  0  0
    3.2301   -0.3842    3.3901 H   0  0  0  0  0  0
    4.9981    2.9908   -2.6655 H   0  0  0  0  0  0
    4.9648    2.1326   -4.1405 H   0  0  0  0  0  0
    2.6040    2.9575   -4.5996 H   0  0  0  0  0  0
    2.6489    3.8659   -3.1260 H   0  0  0  0  0  0
    3.9506    3.6410   -6.5656 H   0  0  0  0  0  0
    5.0330    5.5242   -7.7411 H   0  0  0  0  0  0
    5.6419    7.5681   -6.4945 H   0  0  0  0  0  0
    5.1741    7.7451   -4.0749 H   0  0  0  0  0  0
    4.0912    5.8682   -2.8894 H   0  0  0  0  0  0
  1  5  1  0  0  0
  1  2  1  0  0  0
  1 42  1  0  0  0
  1 43  1  0  0  0
  2  3  1  0  0  0
  2 44  1  0  0  0
  2 45  1  0  0  0
  3  6  1  0  0  0
  3  4  1  0  0  0
  3 46  1  0  0  0
  4  9  1  0  0  0
  4  5  1  0  0  0
  5 47  1  0  0  0
  5 48  1  0  0  0
  6  7  1  0  0  0
  6  8  2  0  0  0
  7 13  1  0  0  0
  7 49  1  0  0  0
  9 10  1  0  0  0
  9 11  2  0  0  0
  9 12  2  0  0  0
 10 22  2  0  0  0
 10 25  1  0  0  0
 13 14  1  0  0  0
 13 15  1  0  0  0
 13 50  1  0  0  0
 14 21  2  0  0  0
 14 28  1  0  0  0
 15 16  1  0  0  0
 15 51  1  0  0  0
 15 52  1  0  0  0
 16 20  2  0  0  0
 16 30  1  0  0  0
 17 30  2  0  0  0
 17 18  1  0  0  0
 17 53  1  0  0  0
 18 19  2  0  0  0
 18 54  1  0  0  0
 19 20  1  0  0  0
 19 55  1  0  0  0
 20 56  1  0  0  0
 22 23  1  0  0  0
 22 57  1  0  0  0
 23 24  2  0  0  0
 23 58  1  0  0  0
 24 26  1  0  0  0
 24 27  1  0  0  0
 25 26  2  0  0  0
 25 59  1  0  0  0
 26 60  1  0  0  0
 27 40  2  0  0  0
 27 41  1  0  0  0
 28 29  1  0  0  0
 28 31  2  0  0  0
 29 32  1  0  0  0
 29 61  1  0  0  0
 30 62  1  0  0  0
 32 33  1  0  0  0
 32 63  1  0  0  0
 32 64  1  0  0  0
 33 34  1  0  0  0
 33 65  1  0  0  0
 33 66  1  0  0  0
 34 35  2  0  0  0
 34 39  1  0  0  0
 35 36  1  0  0  0
 35 67  1  0  0  0
 36 37  2  0  0  0
 36 68  1  0  0  0
 37 38  1  0  0  0
 37 69  1  0  0  0
 38 39  2  0  0  0
 38 70  1  0  0  0
 39 71  1  0  0  0
M  CHG  2  27   1  41  -1
M  END
> <chembl_id>
CHEMBL426143

> <chembl_pref_name>
None

> <i_m_ct_stereo_status>
1

> <s_m_source_file>
sdf/inactives_sanitized.sdf

> <i_m_source_file_index>
141

> <i_lp_mmshare_version>
49012

> <i_f3d_flags>
0

> <s_epik_input>
W2NIXTFbY0hdYyhbTitdKD1PKVtPLV0pW2NIXVtjSF1jMVMoPU8pKD1PKU4yW0NIMl1bQ0gyXVtDSDJdW0NAQEhdMkMoPU8pW05IXVtDQEBIXShbQ0gyXWMzW2NIXVtjSF1bY0hdW2NIXVtjSF0zKUMoPU8pQyg9TylbTkhdW0NIMl1bQ0gyXWM0W2NIXVtjSF1bY0hdW2NIXVtjSF00

> <s_epik_cmdline>
J2VwaWtfcHl0aG9uJywgJy1waHQnLCAnMC41JywgJy1waCcsICc3LjUnLCAnLW50JywgJy1tYScsICcyMDAnLCAnLWltYWUnLCAnPGluZmlsZS5tYWU+JywgJy1vbWFlJywgJzxvdXRmaWxlLm1hZT4n

> <r_lp_tautomer_probability>
1

> <r_epik_Ionization_Penalty>
  0.0000

> <r_epik_Ionization_Penalty_Charging>
  0.0000

> <r_epik_Ionization_Penalty_Neutral>
  0.0000

> <r_epik_State_Penalty>
 -0.0000

> <r_epik_Charging_Adjusted_Penalty>
0

> <i_epik_Tot_Q>
0

> <i_epik_Tot_abs_Q>
2

> <s_lp_Force_Field>
OPLS3e

> <r_lp_Energy>
54.542691

> <b_lp_Chiralities_Consistent>
1

> <s_lp_Variant>
sdf/inactives_sanitized.sdf:141-1

$$$$
sdf/inactives_sanitized.sdf:142
                    3D
 Schrodinger Suite 2020-1.
 78 81  0  0  1  0            999 V2000
   -2.3433    1.2007    0.2170 C   0  0  0  0  0  0
   -2.9599   -0.0496    0.3692 C   0  0  0  0  0  0
   -2.2094   -1.2230    0.3953 C   0  0  0  0  0  0
   -0.8232   -1.1684    0.2777 C   0  0  0  0  0  0
   -0.1713    0.0642    0.1438 C   0  0  0  0  0  0
   -0.9441    1.2320    0.1012 C   0  0  0  0  0  0
    1.3557    0.1659   -0.0101 C   0  0  2  0  0  0
    1.7353    0.1343   -1.5059 C   0  0  0  0  0  0
    2.1479   -0.8827    0.8278 C   0  0  0  0  0  0
    3.6951   -0.7458    0.8356 C   0  0  0  0  0  0
    4.3385   -1.8811    1.6538 C   0  0  0  0  0  0
    4.1820    0.6284    1.3364 C   0  0  0  0  0  0
    1.4482   -0.8403   -2.2025 O   0  0  0  0  0  0
    2.3871    1.2081   -1.9838 N   0  0  0  0  0  0
    2.7835    1.3854   -3.3771 C   0  0  0  0  0  0
    1.6303    1.6058   -4.2671 C   0  0  0  0  0  0
    0.7244    1.7809   -4.9653 N   0  0  0  0  0  0
   -3.1495    2.4614    0.1754 C   0  0  0  0  0  0
   -4.4550    2.4749   -0.3357 C   0  0  0  0  0  0
   -5.1958    3.6538   -0.3819 C   0  0  0  0  0  0
   -4.6420    4.8457    0.0784 C   0  0  0  0  0  0
   -3.3412    4.8748    0.5947 C   0  0  0  0  0  0
   -2.6171    3.6727    0.6414 C   0  0  0  0  0  0
   -2.7321    6.1664    1.0664 C   0  0  0  0  0  0
   -1.5089    6.1736    1.5746 N   0  0  0  0  0  0
   -1.0813    7.3680    1.9016 C   0  0  0  0  0  0
   -2.2147    8.6436    1.6061 S   0  0  0  0  0  0
   -3.3178    7.4376    1.0123 C   0  0  0  0  0  0
    0.1673    7.6738    2.3712 N   0  0  0  0  0  0
    0.9626    6.6500    3.0713 C   0  0  0  0  0  0
    1.6520    5.6289    2.1336 C   0  0  0  0  0  0
    2.5671    6.3703    1.1236 N   0  3  0  0  0  0
    1.7099    7.4434    0.4027 C   0  0  0  0  0  0
    1.0767    8.3796    1.4570 C   0  0  0  0  0  0
    3.3709    5.4221    0.1647 C   0  0  0  0  0  0
    2.4174    4.5668   -0.7084 C   0  0  0  0  0  0
    4.2761    4.5044    1.0233 C   0  0  0  0  0  0
    4.2869    6.2859   -0.7374 C   0  0  0  0  0  0
   -4.0322   -0.1249    0.4735 H   0  0  0  0  0  0
   -2.7038   -2.1769    0.5052 H   0  0  0  0  0  0
   -0.2684   -2.0939    0.2870 H   0  0  0  0  0  0
   -0.4391    2.1766   -0.0381 H   0  0  0  0  0  0
    1.6217    1.1437    0.3958 H   0  0  0  0  0  0
    1.9074   -1.8872    0.4763 H   0  0  0  0  0  0
    1.7950   -0.8374    1.8600 H   0  0  0  0  0  0
    4.0510   -0.8620   -0.1894 H   0  0  0  0  0  0
    4.0426   -1.8350    2.7028 H   0  0  0  0  0  0
    5.4272   -1.8306    1.6146 H   0  0  0  0  0  0
    4.0471   -2.8602    1.2707 H   0  0  0  0  0  0
    3.8034    0.8472    2.3355 H   0  0  0  0  0  0
    3.8651    1.4331    0.6737 H   0  0  0  0  0  0
    5.2711    0.6692    1.3788 H   0  0  0  0  0  0
    2.5585    1.9867   -1.3649 H   0  0  0  0  0  0
    3.4393    2.2529   -3.4512 H   0  0  0  0  0  0
    3.3490    0.5238   -3.7360 H   0  0  0  0  0  0
   -4.9056    1.5705   -0.7167 H   0  0  0  0  0  0
   -6.1987    3.6447   -0.7827 H   0  0  0  0  0  0
   -5.2364    5.7453    0.0228 H   0  0  0  0  0  0
   -1.6177    3.6791    1.0503 H   0  0  0  0  0  0
   -4.2945    7.7197    0.6483 H   0  0  0  0  0  0
    1.7395    7.1551    3.6481 H   0  0  0  0  0  0
    0.3370    6.1400    3.8055 H   0  0  0  0  0  0
    2.2818    4.9646    2.7220 H   0  0  0  0  0  0
    0.9327    5.0348    1.5711 H   0  0  0  0  0  0
    2.3656    8.0186   -0.2477 H   0  0  0  0  0  0
    0.9568    6.9327   -0.1984 H   0  0  0  0  0  0
    0.5601    9.2094    0.9730 H   0  0  0  0  0  0
    1.8792    8.8340    2.0413 H   0  0  0  0  0  0
    2.9883    3.9455   -1.3990 H   0  0  0  0  0  0
    1.7507    5.1742   -1.3195 H   0  0  0  0  0  0
    1.8029    3.8877   -0.1178 H   0  0  0  0  0  0
    3.7088    3.7716    1.5964 H   0  0  0  0  0  0
    4.8843    5.0783    1.7240 H   0  0  0  0  0  0
    4.9618    3.9301    0.3985 H   0  0  0  0  0  0
    4.9838    5.6643   -1.3016 H   0  0  0  0  0  0
    4.8835    6.9887   -0.1540 H   0  0  0  0  0  0
    3.7280    6.8549   -1.4802 H   0  0  0  0  0  0
    3.2491    6.8748    1.6722 H   0  0  0  0  0  0
  1  6  2  0  0  0
  1  2  1  0  0  0
  1 18  1  0  0  0
  2  3  2  0  0  0
  2 39  1  0  0  0
  3  4  1  0  0  0
  3 40  1  0  0  0
  4  5  2  0  0  0
  4 41  1  0  0  0
  5  6  1  0  0  0
  5  7  1  0  0  0
  6 42  1  0  0  0
  7  8  1  0  0  0
  7  9  1  0  0  0
  7 43  1  0  0  0
  8 13  2  0  0  0
  8 14  1  0  0  0
  9 10  1  0  0  0
  9 44  1  0  0  0
  9 45  1  0  0  0
 10 11  1  0  0  0
 10 12  1  0  0  0
 10 46  1  0  0  0
 11 47  1  0  0  0
 11 48  1  0  0  0
 11 49  1  0  0  0
 12 50  1  0  0  0
 12 51  1  0  0  0
 12 52  1  0  0  0
 14 15  1  0  0  0
 14 53  1  0  0  0
 15 16  1  0  0  0
 15 54  1  0  0  0
 15 55  1  0  0  0
 16 17  3  0  0  0
 18 19  2  0  0  0
 18 23  1  0  0  0
 19 20  1  0  0  0
 19 56  1  0  0  0
 20 21  2  0  0  0
 20 57  1  0  0  0
 21 22  1  0  0  0
 21 58  1  0  0  0
 22 23  2  0  0  0
 22 24  1  0  0  0
 23 59  1  0  0  0
 24 25  1  0  0  0
 24 28  2  0  0  0
 25 26  2  0  0  0
 26 27  1  0  0  0
 26 29  1  0  0  0
 27 28  1  0  0  0
 28 60  1  0  0  0
 29 30  1  0  0  0
 29 34  1  0  0  0
 30 31  1  0  0  0
 30 61  1  0  0  0
 30 62  1  0  0  0
 31 32  1  0  0  0
 31 63  1  0  0  0
 31 64  1  0  0  0
 32 33  1  0  0  0
 32 35  1  0  0  0
 32 78  1  0  0  0
 33 34  1  0  0  0
 33 65  1  0  0  0
 33 66  1  0  0  0
 34 67  1  0  0  0
 34 68  1  0  0  0
 35 36  1  0  0  0
 35 37  1  0  0  0
 35 38  1  0  0  0
 36 69  1  0  0  0
 36 70  1  0  0  0
 36 71  1  0  0  0
 37 72  1  0  0  0
 37 73  1  0  0  0
 37 74  1  0  0  0
 38 75  1  0  0  0
 38 76  1  0  0  0
 38 77  1  0  0  0
M  CHG  1  32   1
M  END
> <chembl_id>
CHEMBL212879

> <chembl_pref_name>
None

> <i_m_ct_stereo_status>
1

> <s_m_source_file>
sdf/inactives_sanitized.sdf

> <i_m_source_file_index>
142

> <i_lp_mmshare_version>
49012

> <i_f3d_flags>
0

> <s_epik_input>
TiNDW0NIMl1bTkhdQyg9TylbQ0BIXShbQ0gyXVtDSF0oW0NIM10pW0NIM10pYyhbY0hdMSlbY0hdW2NIXVtjSF1jMS1jMltjSF1bY0hdW2NIXWMoW2NIXTIpLWMzbmMoc1tjSF0zKU40W0NIMl1bQ0gyXU4oW0NIMl1bQ0gyXTQpQyhbQ0gzXSkoW0NIM10pW0NIM10=

> <s_epik_cmdline>
J2VwaWtfcHl0aG9uJywgJy1waHQnLCAnMC41JywgJy1waCcsICc3LjUnLCAnLW50JywgJy1tYScsICcyMDAnLCAnLWltYWUnLCAnPGluZmlsZS5tYWU+JywgJy1vbWFlJywgJzxvdXRmaWxlLm1hZT4n

> <r_epik_Ionization_Penalty>
  0.3230

> <r_epik_Ionization_Penalty_Charging>
  0.3228

> <r_epik_Ionization_Penalty_Neutral>
  0.0001

> <r_epik_State_Penalty>
  0.3175

> <r_epik_Charging_Adjusted_Penalty>
0.640342393722262

> <i_epik_Tot_Q>
1

> <i_epik_Tot_abs_Q>
1

> <s_lp_Force_Field>
OPLS3e

> <r_lp_Energy>
57.535057

> <b_lp_Chiralities_Consistent>
1

> <s_lp_Variant>
sdf/inactives_sanitized.sdf:142-1

$$$$
sdf/inactives_sanitized.sdf:142
                    3D
 Schrodinger Suite 2020-1.
 77 80  0  0  1  0            999 V2000
   -1.9834    1.2330   -0.1749 C   0  0  0  0  0  0
   -2.7406    0.0863   -0.4551 C   0  0  0  0  0  0
   -2.1376   -1.1652   -0.5617 C   0  0  0  0  0  0
   -0.7626   -1.2934   -0.3880 C   0  0  0  0  0  0
    0.0229   -0.1703   -0.0998 C   0  0  0  0  0  0
   -0.5986    1.0816   -0.0022 C   0  0  0  0  0  0
    1.5439   -0.2849    0.0808 C   0  0  2  0  0  0
    2.2254   -0.4901   -1.2901 C   0  0  0  0  0  0
    1.9415   -1.3685    1.1273 C   0  0  0  0  0  0
    3.4529   -1.4903    1.4631 C   0  0  0  0  0  0
    3.7063   -2.6638    2.4274 C   0  0  0  0  0  0
    4.0540   -0.1863    2.0238 C   0  0  0  0  0  0
    2.1478   -1.5756   -1.8680 O   0  0  0  0  0  0
    2.8912    0.5612   -1.7992 N   0  0  0  0  0  0
    3.6355    0.5394   -3.0553 C   0  0  0  0  0  0
    4.8128   -0.3459   -3.0047 C   0  0  0  0  0  0
    5.7373   -1.0405   -2.9645 N   0  0  0  0  0  0
   -2.6314    2.5759   -0.0635 C   0  0  0  0  0  0
   -2.1471    3.5383    0.8333 C   0  0  0  0  0  0
   -2.7526    4.7875    0.9406 C   0  0  0  0  0  0
   -3.8554    5.0973    0.1495 C   0  0  0  0  0  0
   -4.3677    4.1639   -0.7624 C   0  0  0  0  0  0
   -3.7432    2.9109   -0.8526 C   0  0  0  0  0  0
   -5.5546    4.4879   -1.6279 C   0  0  0  0  0  0
   -6.2664    5.5847   -1.4073 N   0  0  0  0  0  0
   -7.2667    5.7501   -2.2420 C   0  0  0  0  0  0
   -7.4149    4.4795   -3.4194 S   0  0  0  0  0  0
   -6.0232    3.7280   -2.7052 C   0  0  0  0  0  0
   -8.1544    6.7990   -2.2110 N   0  0  0  0  0  0
   -7.9563    7.9757   -1.3495 C   0  0  0  0  0  0
   -9.2760    8.6134   -0.8633 C   0  0  0  0  0  0
  -10.1274    9.0037   -2.0002 N   0  0  0  0  0  0
  -10.4190    7.7753   -2.7593 C   0  0  0  0  0  0
   -9.1235    7.1094   -3.2752 C   0  0  0  0  0  0
  -11.3170    9.8331   -1.6499 C   0  0  0  0  0  0
  -12.0611   10.2591   -2.9450 C   0  0  0  0  0  0
  -10.8578   11.1382   -0.9439 C   0  0  0  0  0  0
  -12.3054    9.0754   -0.7230 C   0  0  0  0  0  0
   -3.8109    0.1538   -0.5845 H   0  0  0  0  0  0
   -2.7374   -2.0365   -0.7799 H   0  0  0  0  0  0
   -0.3104   -2.2695   -0.4846 H   0  0  0  0  0  0
    0.0100    1.9507    0.2011 H   0  0  0  0  0  0
    1.8787    0.6718    0.4854 H   0  0  0  0  0  0
    1.5895   -2.3448    0.7901 H   0  0  0  0  0  0
    1.4007   -1.1684    2.0541 H   0  0  0  0  0  0
    3.9888   -1.7243    0.5420 H   0  0  0  0  0  0
    3.2107   -2.5078    3.3864 H   0  0  0  0  0  0
    4.7715   -2.7938    2.6224 H   0  0  0  0  0  0
    3.3379   -3.6032    2.0133 H   0  0  0  0  0  0
    3.5267    0.1435    2.9197 H   0  0  0  0  0  0
    4.0137    0.6227    1.2946 H   0  0  0  0  0  0
    5.1038   -0.3182    2.2878 H   0  0  0  0  0  0
    2.9551    1.4073   -1.2525 H   0  0  0  0  0  0
    2.9939    0.2288   -3.8817 H   0  0  0  0  0  0
    3.9818    1.5482   -3.2806 H   0  0  0  0  0  0
   -1.3003    3.3208    1.4677 H   0  0  0  0  0  0
   -2.3681    5.5157    1.6396 H   0  0  0  0  0  0
   -4.3065    6.0738    0.2508 H   0  0  0  0  0  0
   -4.1219    2.1827   -1.5538 H   0  0  0  0  0  0
   -5.6363    2.8019   -3.1032 H   0  0  0  0  0  0
   -7.3531    7.7095   -0.4809 H   0  0  0  0  0  0
   -7.3559    8.7071   -1.8928 H   0  0  0  0  0  0
   -9.8005    7.9156   -0.2086 H   0  0  0  0  0  0
   -9.0134    9.4750   -0.2526 H   0  0  0  0  0  0
  -10.9749    7.0645   -2.1460 H   0  0  0  0  0  0
  -11.0398    7.9888   -3.6270 H   0  0  0  0  0  0
   -8.6348    7.7513   -4.0099 H   0  0  0  0  0  0
   -9.3959    6.2103   -3.8260 H   0  0  0  0  0  0
  -12.8099   11.0273   -2.7466 H   0  0  0  0  0  0
  -12.5878    9.4316   -3.4202 H   0  0  0  0  0  0
  -11.3720   10.6715   -3.6839 H   0  0  0  0  0  0
  -10.0559   11.6301   -1.4967 H   0  0  0  0  0  0
  -10.4930   10.9642    0.0683 H   0  0  0  0  0  0
  -11.6722   11.8591   -0.8577 H   0  0  0  0  0  0
  -13.1687    9.6946   -0.4756 H   0  0  0  0  0  0
  -11.8425    8.7825    0.2194 H   0  0  0  0  0  0
  -12.6883    8.1654   -1.1851 H   0  0  0  0  0  0
  1  6  2  0  0  0
  1  2  1  0  0  0
  1 18  1  0  0  0
  2  3  2  0  0  0
  2 39  1  0  0  0
  3  4  1  0  0  0
  3 40  1  0  0  0
  4  5  2  0  0  0
  4 41  1  0  0  0
  5  6  1  0  0  0
  5  7  1  0  0  0
  6 42  1  0  0  0
  7  8  1  0  0  0
  7  9  1  0  0  0
  7 43  1  0  0  0
  8 13  2  0  0  0
  8 14  1  0  0  0
  9 10  1  0  0  0
  9 44  1  0  0  0
  9 45  1  0  0  0
 10 11  1  0  0  0
 10 12  1  0  0  0
 10 46  1  0  0  0
 11 47  1  0  0  0
 11 48  1  0  0  0
 11 49  1  0  0  0
 12 50  1  0  0  0
 12 51  1  0  0  0
 12 52  1  0  0  0
 14 15  1  0  0  0
 14 53  1  0  0  0
 15 16  1  0  0  0
 15 54  1  0  0  0
 15 55  1  0  0  0
 16 17  3  0  0  0
 18 19  2  0  0  0
 18 23  1  0  0  0
 19 20  1  0  0  0
 19 56  1  0  0  0
 20 21  2  0  0  0
 20 57  1  0  0  0
 21 22  1  0  0  0
 21 58  1  0  0  0
 22 23  2  0  0  0
 22 24  1  0  0  0
 23 59  1  0  0  0
 24 25  1  0  0  0
 24 28  2  0  0  0
 25 26  2  0  0  0
 26 27  1  0  0  0
 26 29  1  0  0  0
 27 28  1  0  0  0
 28 60  1  0  0  0
 29 30  1  0  0  0
 29 34  1  0  0  0
 30 31  1  0  0  0
 30 61  1  0  0  0
 30 62  1  0  0  0
 31 32  1  0  0  0
 31 63  1  0  0  0
 31 64  1  0  0  0
 32 33  1  0  0  0
 32 35  1  0  0  0
 33 34  1  0  0  0
 33 65  1  0  0  0
 33 66  1  0  0  0
 34 67  1  0  0  0
 34 68  1  0  0  0
 35 36  1  0  0  0
 35 37  1  0  0  0
 35 38  1  0  0  0
 36 69  1  0  0  0
 36 70  1  0  0  0
 36 71  1  0  0  0
 37 72  1  0  0  0
 37 73  1  0  0  0
 37 74  1  0  0  0
 38 75  1  0  0  0
 38 76  1  0  0  0
 38 77  1  0  0  0
M  END
> <chembl_id>
CHEMBL212879

> <chembl_pref_name>
None

> <i_m_ct_stereo_status>
1

> <s_m_source_file>
sdf/inactives_sanitized.sdf

> <i_m_source_file_index>
142

> <i_lp_mmshare_version>
49012

> <i_f3d_flags>
0

> <s_epik_input>
TiNDW0NIMl1bTkhdQyg9TylbQ0BIXShbQ0gyXVtDSF0oW0NIM10pW0NIM10pYyhbY0hdMSlbY0hdW2NIXVtjSF1jMS1jMltjSF1bY0hdW2NIXWMoW2NIXTIpLWMzbmMoc1tjSF0zKU40W0NIMl1bQ0gyXU4oW0NIMl1bQ0gyXTQpQyhbQ0gzXSkoW0NIM10pW0NIM10=

> <s_epik_cmdline>
J2VwaWtfcHl0aG9uJywgJy1waHQnLCAnMC41JywgJy1waCcsICc3LjUnLCAnLW50JywgJy1tYScsICcyMDAnLCAnLWltYWUnLCAnPGluZmlsZS5tYWU+JywgJy1vbWFlJywgJzxvdXRmaWxlLm1hZT4n

> <r_epik_Ionization_Penalty>
  0.5280

> <r_epik_Ionization_Penalty_Charging>
  0.0000

> <r_epik_Ionization_Penalty_Neutral>
  0.5280

> <r_epik_State_Penalty>
  0.5213

> <r_epik_Charging_Adjusted_Penalty>
0.52130373128335

> <i_epik_Tot_Q>
0

> <i_epik_Tot_abs_Q>
0

> <s_lp_Force_Field>
OPLS3e

> <r_lp_Energy>
62.630387

> <b_lp_Chiralities_Consistent>
1

> <s_lp_Variant>
sdf/inactives_sanitized.sdf:142-2

$$$$
sdf/inactives_sanitized.sdf:143
                    3D
 Schrodinger Suite 2020-1.
 30 31  0  0  1  0            999 V2000
   -0.7443    1.2570   -0.3472 C   0  0  0  0  0  0
   -0.0456    0.0725   -0.0539 C   0  0  0  0  0  0
   -0.7619   -1.1133    0.1426 C   0  0  0  0  0  0
   -2.1619   -1.1432    0.0628 C   0  0  0  0  0  0
   -2.8388    0.0500   -0.2253 C   0  0  0  0  0  0
   -2.1374    1.2366   -0.4290 C   0  0  0  0  0  0
   -0.1413    2.3588   -0.5459 O   0  5  0  0  0  0
   -2.9083   -2.4066    0.2793 N   0  3  0  0  0  0
   -4.1336   -2.3872    0.2000 O   0  0  0  0  0  0
   -2.2753   -3.4285    0.5304 O   0  5  0  0  0  0
    1.4805    0.0340    0.0501 C   0  0  0  0  0  0
    3.6676    0.5625    3.6054 O   0  0  0  0  0  0
    2.2720    0.3314    3.7658 C   0  0  0  0  0  0
    1.6773   -0.2527    2.4663 C   0  0  0  0  0  0
    1.9705    0.6051    1.3084 N   0  0  0  0  0  0
    3.4019    0.9168    1.2140 C   0  0  0  0  0  0
    3.9470    1.4725    2.5469 C   0  0  0  0  0  0
   -0.2171   -2.0196    0.3656 H   0  0  0  0  0  0
   -3.9165    0.0686   -0.2951 H   0  0  0  0  0  0
   -2.6864    2.1407   -0.6518 H   0  0  0  0  0  0
    1.8833    0.5958   -0.7947 H   0  0  0  0  0  0
    1.8466   -0.9878   -0.0687 H   0  0  0  0  0  0
    2.1267   -0.3687    4.5884 H   0  0  0  0  0  0
    1.7621    1.2542    4.0491 H   0  0  0  0  0  0
    2.0756   -1.2539    2.2933 H   0  0  0  0  0  0
    0.5987   -0.3718    2.5740 H   0  0  0  0  0  0
    3.9575    0.0223    0.9266 H   0  0  0  0  0  0
    3.5620    1.6423    0.4151 H   0  0  0  0  0  0
    5.0262    1.6092    2.4791 H   0  0  0  0  0  0
    3.5224    2.4545    2.7648 H   0  0  0  0  0  0
  1  2  2  0  0  0
  1  6  1  0  0  0
  1  7  1  0  0  0
  2  3  1  0  0  0
  2 11  1  0  0  0
  3  4  2  0  0  0
  3 18  1  0  0  0
  4  5  1  0  0  0
  4  8  1  0  0  0
  5  6  2  0  0  0
  5 19  1  0  0  0
  6 20  1  0  0  0
  8  9  2  0  0  0
  8 10  1  0  0  0
 11 15  1  0  0  0
 11 21  1  0  0  0
 11 22  1  0  0  0
 12 13  1  0  0  0
 12 17  1  0  0  0
 13 14  1  0  0  0
 13 23  1  0  0  0
 13 24  1  0  0  0
 14 15  1  0  0  0
 14 25  1  0  0  0
 14 26  1  0  0  0
 15 16  1  0  0  0
 16 17  1  0  0  0
 16 27  1  0  0  0
 16 28  1  0  0  0
 17 29  1  0  0  0
 17 30  1  0  0  0
M  CHG  3   7  -1   8   1  10  -1
M  END
> <chembl_id>
CHEMBL4226620

> <chembl_pref_name>
None

> <s_m_source_file>
sdf/inactives_sanitized.sdf

> <i_m_source_file_index>
143

> <i_lp_mmshare_version>
49012

> <i_m_ct_stereo_status>
1

> <i_f3d_flags>
0

> <s_epik_input>
W2NIXTFbY0hdYyhbTitdKD1PKVtPLV0pW2NIXWMoYzFbT0hdKVtDSDJdTjJbQ0gyXVtDSDJdT1tDSDJdW0NIMl0y

> <s_epik_cmdline>
J2VwaWtfcHl0aG9uJywgJy1waHQnLCAnMC41JywgJy1waCcsICc3LjUnLCAnLW50JywgJy1tYScsICcyMDAnLCAnLWltYWUnLCAnPGluZmlsZS5tYWU+JywgJy1vbWFlJywgJzxvdXRmaWxlLm1hZT4n

> <r_epik_Ionization_Penalty>
  0.2480

> <r_epik_Ionization_Penalty_Charging>
  0.1425

> <r_epik_Ionization_Penalty_Neutral>
  0.1055

> <r_epik_State_Penalty>
  0.2962

> <r_epik_Charging_Adjusted_Penalty>
0.438751092217715

> <i_epik_Tot_Q>
-1

> <i_epik_Tot_abs_Q>
3

> <s_lp_Force_Field>
OPLS3e

> <r_lp_Energy>
19.741132

> <b_lp_Chiralities_Consistent>
1

> <s_lp_Variant>
sdf/inactives_sanitized.sdf:143-1

$$$$
sdf/inactives_sanitized.sdf:143
                    3D
 Schrodinger Suite 2020-1.
 31 32  0  0  1  0            999 V2000
   -0.8404    1.1336   -0.2401 C   0  0  0  0  0  0
   -0.1199   -0.0549   -0.0270 C   0  0  0  0  0  0
   -0.8174   -1.2402    0.2298 C   0  0  0  0  0  0
   -2.2189   -1.2692    0.2701 C   0  0  0  0  0  0
   -2.9174   -0.0734    0.0523 C   0  0  0  0  0  0
   -2.2349    1.1150   -0.1995 C   0  0  0  0  0  0
   -0.2549    2.2353   -0.4830 O   0  5  0  0  0  0
   -2.9447   -2.5352    0.5361 N   0  3  0  0  0  0
   -4.1721   -2.5148    0.5620 O   0  0  0  0  0  0
   -2.2926   -3.5594    0.7196 O   0  5  0  0  0  0
    1.4079   -0.1016   -0.0482 C   0  0  0  0  0  0
    3.7541   -0.5269   -3.6096 O   0  0  0  0  0  0
    2.3582   -0.3348   -3.8208 C   0  0  0  0  0  0
    1.6962    0.2583   -2.5626 C   0  0  0  0  0  0
    2.0005   -0.6639   -1.3601 N   0  3  0  0  0  0
    3.5191   -0.9039   -1.2120 C   0  0  0  0  0  0
    4.0702   -1.4278   -2.5520 C   0  0  0  0  0  0
   -0.2562   -2.1486    0.3958 H   0  0  0  0  0  0
   -3.9973   -0.0541    0.0756 H   0  0  0  0  0  0
   -2.8000    2.0217   -0.3645 H   0  0  0  0  0  0
    1.7746   -0.7624    0.7395 H   0  0  0  0  0  0
    1.8721    0.8756    0.0973 H   0  0  0  0  0  0
    2.2242    0.3423   -4.6648 H   0  0  0  0  0  0
    1.8863   -1.2784   -4.1014 H   0  0  0  0  0  0
    2.0802    1.2504   -2.3182 H   0  0  0  0  0  0
    0.6116    0.3050   -2.6660 H   0  0  0  0  0  0
    3.9716    0.0462   -0.9219 H   0  0  0  0  0  0
    3.6489   -1.6302   -0.4085 H   0  0  0  0  0  0
    5.1543   -1.5275   -2.4941 H   0  0  0  0  0  0
    3.6779   -2.4221   -2.7741 H   0  0  0  0  0  0
    1.5705   -1.5583   -1.5493 H   0  0  0  0  0  0
  1  2  2  0  0  0
  1  6  1  0  0  0
  1  7  1  0  0  0
  2  3  1  0  0  0
  2 11  1  0  0  0
  3  4  2  0  0  0
  3 18  1  0  0  0
  4  5  1  0  0  0
  4  8  1  0  0  0
  5  6  2  0  0  0
  5 19  1  0  0  0
  6 20  1  0  0  0
  8  9  2  0  0  0
  8 10  1  0  0  0
 11 15  1  0  0  0
 11 21  1  0  0  0
 11 22  1  0  0  0
 12 13  1  0  0  0
 12 17  1  0  0  0
 13 14  1  0  0  0
 13 23  1  0  0  0
 13 24  1  0  0  0
 14 15  1  0  0  0
 14 25  1  0  0  0
 14 26  1  0  0  0
 15 16  1  0  0  0
 15 31  1  0  0  0
 16 17  1  0  0  0
 16 27  1  0  0  0
 16 28  1  0  0  0
 17 29  1  0  0  0
 17 30  1  0  0  0
M  CHG  4   7  -1   8   1  10  -1  15   1
M  END
> <chembl_id>
CHEMBL4226620

> <chembl_pref_name>
None

> <s_m_source_file>
sdf/inactives_sanitized.sdf

> <i_m_source_file_index>
143

> <i_lp_mmshare_version>
49012

> <i_m_ct_stereo_status>
1

> <i_f3d_flags>
0

> <s_epik_input>
W2NIXTFbY0hdYyhbTitdKD1PKVtPLV0pW2NIXWMoYzFbT0hdKVtDSDJdTjJbQ0gyXVtDSDJdT1tDSDJdW0NIMl0y

> <s_epik_cmdline>
J2VwaWtfcHl0aG9uJywgJy1waHQnLCAnMC41JywgJy1waCcsICc3LjUnLCAnLW50JywgJy1tYScsICcyMDAnLCAnLWltYWUnLCAnPGluZmlsZS5tYWU+JywgJy1vbWFlJywgJzxvdXRmaWxlLm1hZT4n

> <r_epik_Ionization_Penalty>
  1.0761

> <r_epik_Ionization_Penalty_Charging>
  1.0761

> <r_epik_Ionization_Penalty_Neutral>
  0.0000

> <r_epik_State_Penalty>
  0.6314

> <r_epik_Charging_Adjusted_Penalty>
1.70752942478404

> <i_epik_Tot_Q>
0

> <i_epik_Tot_abs_Q>
4

> <s_lp_Force_Field>
OPLS3e

> <r_lp_Energy>
13.833433

> <b_lp_Chiralities_Consistent>
1

> <s_lp_Variant>
sdf/inactives_sanitized.sdf:143-2

$$$$
sdf/inactives_sanitized.sdf:144
                    3D
 Schrodinger Suite 2020-1.
 53 54  0  0  1  0            999 V2000
   -1.0412   -1.0600   -0.1325 C   0  0  0  0  0  0
   -2.2478   -0.6815    0.3992 N   0  0  0  0  0  0
   -2.0936    0.3833    1.1887 N   0  0  0  0  0  0
   -0.7468    0.6929    1.1662 N   0  0  0  0  0  0
   -0.1072   -0.1560    0.3678 C   0  0  0  0  0  0
    1.4153   -0.0699    0.1136 C   0  0  2  0  0  0
   -3.5817   -1.2349    0.1660 C   0  0  1  0  0  0
   -4.3947   -0.3254   -0.7864 C   0  0  0  0  0  0
   -3.5191   -2.6362   -0.2897 C   0  0  0  0  0  0
   -3.4699   -3.7356   -0.6476 N   0  0  0  0  0  0
    1.7340   -0.7602   -1.2467 C   0  0  0  0  0  0
    2.1915   -0.8232    1.2599 C   0  0  0  0  0  0
    1.9106   -0.2824    2.6837 C   0  0  0  0  0  0
    3.7252   -0.8886    1.0490 C   0  0  0  0  0  0
    1.8754    1.3359    0.0632 N   0  0  0  0  0  0
    1.4650    2.3263   -0.7600 C   0  0  0  0  0  0
    0.5747    2.1729   -1.5992 O   0  0  0  0  0  0
    2.1380    3.6717   -0.5824 C   0  0  0  0  0  0
    1.5762    4.8121   -1.1761 C   0  0  0  0  0  0
    2.1803    6.0581   -1.0305 C   0  0  0  0  0  0
    3.3527    6.1747   -0.2900 C   0  0  0  0  0  0
    3.9269    5.0554    0.3050 C   0  0  0  0  0  0
    3.3241    3.8088    0.1594 C   0  0  0  0  0  0
   -3.8308   -0.2242   -2.2191 C   0  0  0  0  0  0
   -4.6792    0.6742   -3.1351 C   0  0  0  0  0  0
   -4.1048    0.7912   -4.5532 C   0  0  0  0  0  0
   -0.9594   -1.8960   -0.8113 H   0  0  0  0  0  0
   -4.0857   -1.2664    1.1333 H   0  0  0  0  0  0
   -5.4171   -0.7027   -0.8348 H   0  0  0  0  0  0
   -4.4736    0.6745   -0.3559 H   0  0  0  0  0  0
    1.5843   -1.8395   -1.1960 H   0  0  0  0  0  0
    2.7611   -0.5869   -1.5687 H   0  0  0  0  0  0
    1.0930   -0.3929   -2.0492 H   0  0  0  0  0  0
    1.8426   -1.8578    1.2593 H   0  0  0  0  0  0
    2.1603    0.7756    2.7718 H   0  0  0  0  0  0
    2.4931   -0.8184    3.4339 H   0  0  0  0  0  0
    0.8662   -0.4044    2.9686 H   0  0  0  0  0  0
    4.1705    0.1057    0.9999 H   0  0  0  0  0  0
    3.9924   -1.4196    0.1361 H   0  0  0  0  0  0
    4.2130   -1.4229    1.8652 H   0  0  0  0  0  0
    2.6543    1.5444    0.6699 H   0  0  0  0  0  0
    0.6654    4.7455   -1.7546 H   0  0  0  0  0  0
    1.7403    6.9306   -1.4907 H   0  0  0  0  0  0
    3.8211    7.1413   -0.1771 H   0  0  0  0  0  0
    4.8378    5.1531    0.8768 H   0  0  0  0  0  0
    3.7957    2.9574    0.6285 H   0  0  0  0  0  0
   -2.8124    0.1654   -2.1833 H   0  0  0  0  0  0
   -3.7610   -1.2217   -2.6550 H   0  0  0  0  0  0
   -5.6964    0.2840   -3.1922 H   0  0  0  0  0  0
   -4.7583    1.6714   -2.6994 H   0  0  0  0  0  0
   -4.7287    1.4342   -5.1745 H   0  0  0  0  0  0
   -4.0479   -0.1838   -5.0386 H   0  0  0  0  0  0
   -3.1010    1.2175   -4.5396 H   0  0  0  0  0  0
  1  5  2  0  0  0
  1  2  1  0  0  0
  1 27  1  0  0  0
  2  7  1  0  0  0
  2  3  1  0  0  0
  3  4  2  0  0  0
  4  5  1  0  0  0
  5  6  1  0  0  0
  6 15  1  0  0  0
  6 11  1  0  0  0
  6 12  1  0  0  0
  7  8  1  0  0  0
  7  9  1  0  0  0
  7 28  1  0  0  0
  8 24  1  0  0  0
  8 29  1  0  0  0
  8 30  1  0  0  0
  9 10  3  0  0  0
 11 31  1  0  0  0
 11 32  1  0  0  0
 11 33  1  0  0  0
 12 13  1  0  0  0
 12 14  1  0  0  0
 12 34  1  0  0  0
 13 35  1  0  0  0
 13 36  1  0  0  0
 13 37  1  0  0  0
 14 38  1  0  0  0
 14 39  1  0  0  0
 14 40  1  0  0  0
 15 16  1  0  0  0
 15 41  1  0  0  0
 16 17  2  0  0  0
 16 18  1  0  0  0
 18 19  2  0  0  0
 18 23  1  0  0  0
 19 20  1  0  0  0
 19 42  1  0  0  0
 20 21  2  0  0  0
 20 43  1  0  0  0
 21 22  1  0  0  0
 21 44  1  0  0  0
 22 23  2  0  0  0
 22 45  1  0  0  0
 23 46  1  0  0  0
 24 25  1  0  0  0
 24 47  1  0  0  0
 24 48  1  0  0  0
 25 26  1  0  0  0
 25 49  1  0  0  0
 25 50  1  0  0  0
 26 51  1  0  0  0
 26 52  1  0  0  0
 26 53  1  0  0  0
M  END
> <chembl_id>
CHEMBL386912

> <chembl_pref_name>
None

> <i_m_ct_stereo_status>
1

> <s_m_source_file>
sdf/inactives_sanitized.sdf

> <i_m_source_file_index>
144

> <i_lp_mmshare_version>
49012

> <i_f3d_flags>
0

> <s_epik_input>
W0NIM11bQ0gyXVtDSDJdW0NIMl1bQ0BASF0oQyNOKW4xW2NIXWMobm4xKVtDQF0oW0NIM10pKFtDSF0oW0NIM10pW0NIM10pW05IXUMoPU8pYzJbY0hdW2NIXVtjSF1bY0hdW2NIXTI=

> <s_epik_cmdline>
J2VwaWtfcHl0aG9uJywgJy1waHQnLCAnMC41JywgJy1waCcsICc3LjUnLCAnLW50JywgJy1tYScsICcyMDAnLCAnLWltYWUnLCAnPGluZmlsZS5tYWU+JywgJy1vbWFlJywgJzxvdXRmaWxlLm1hZT4n

> <r_lp_tautomer_probability>
1

> <r_epik_Ionization_Penalty>
  0.0000

> <r_epik_Ionization_Penalty_Charging>
  0.0000

> <r_epik_Ionization_Penalty_Neutral>
  0.0000

> <r_epik_State_Penalty>
 -0.0000

> <r_epik_Charging_Adjusted_Penalty>
0

> <i_epik_Tot_Q>
0

> <i_epik_Tot_abs_Q>
0

> <s_lp_Force_Field>
OPLS3e

> <r_lp_Energy>
19.155837

> <b_lp_Chiralities_Consistent>
1

> <s_lp_Variant>
sdf/inactives_sanitized.sdf:144-1

$$$$
sdf/inactives_sanitized.sdf:145
                    3D
 Schrodinger Suite 2020-1.
 60 62  0  0  1  0            999 V2000
   -0.7904   -0.9855    0.1017 C   0  0  0  0  0  0
   -0.0213    0.0836    0.4744 N   0  0  0  0  0  0
   -0.7919    1.0955    0.8821 N   0  0  0  0  0  0
   -2.0971    0.6556    0.7708 N   0  0  0  0  0  0
   -2.1116   -0.5745    0.2665 C   0  0  0  0  0  0
   -3.4350   -1.3293   -0.0009 C   0  0  1  0  0  0
    1.4305    0.2206    0.3941 C   0  0  1  0  0  0
    1.8400    1.2873   -0.6494 C   0  0  0  0  0  0
    2.0035    0.4906    1.7246 C   0  0  0  0  0  0
    2.4542    0.7020    2.7691 N   0  0  0  0  0  0
   -3.9723   -1.7332    1.3986 C   0  0  0  0  0  0
   -4.4714   -0.4634   -0.6087 N   0  0  0  0  0  0
   -4.3663    0.4336   -1.6151 C   0  0  0  0  0  0
   -3.3108    0.6952   -2.1965 O   0  0  0  0  0  0
    1.3587    0.9808   -2.0823 C   0  0  0  0  0  0
    1.7941    2.0444   -3.1044 C   0  0  0  0  0  0
    1.3140    1.7319   -4.5281 C   0  0  0  0  0  0
   -5.6046    1.0902   -1.9803 C   0  0  0  0  0  0
   -6.8508    0.9469   -1.3292 C   0  0  0  0  0  0
   -7.8635    1.7091   -1.8951 C   0  0  0  0  0  0
   -7.3075    2.6357   -3.2462 S   0  0  0  0  0  0
   -5.7106    1.9928   -3.0419 C   0  0  0  0  0  0
   -3.1995   -2.6375   -0.8626 C   0  0  2  0  0  0
   -2.6191   -2.3927   -2.2906 C   0  0  0  0  0  0
   -2.2646   -3.7170   -2.9949 C   0  0  0  0  0  0
   -3.5206   -4.6026   -3.1490 C   0  0  2  0  0  0
   -4.1369   -4.8603   -1.7562 C   0  0  0  0  0  0
   -4.4639   -3.5365   -1.0307 C   0  0  0  0  0  0
   -3.2105   -5.9144   -3.8907 C   0  0  0  0  0  0
   -0.3437   -1.8969   -0.2664 H   0  0  0  0  0  0
    1.8326   -0.7464    0.0886 H   0  0  0  0  0  0
    2.9280    1.3704   -0.6548 H   0  0  0  0  0  0
    1.4702    2.2669   -0.3405 H   0  0  0  0  0  0
   -3.3251   -2.4674    1.8805 H   0  0  0  0  0  0
   -4.9777   -2.1520    1.3623 H   0  0  0  0  0  0
   -4.0325   -0.8754    2.0708 H   0  0  0  0  0  0
   -5.3955   -0.5968   -0.2262 H   0  0  0  0  0  0
    1.7376    0.0040   -2.3869 H   0  0  0  0  0  0
    0.2704    0.9029   -2.0960 H   0  0  0  0  0  0
    1.4071    3.0191   -2.8042 H   0  0  0  0  0  0
    2.8813    2.1332   -3.1042 H   0  0  0  0  0  0
    1.6288    2.5093   -5.2249 H   0  0  0  0  0  0
    0.2261    1.6680   -4.5736 H   0  0  0  0  0  0
    1.7202    0.7843   -4.8834 H   0  0  0  0  0  0
   -7.0180    0.3094   -0.4730 H   0  0  0  0  0  0
   -8.8953    1.7695   -1.5815 H   0  0  0  0  0  0
   -4.9249    2.3072   -3.7143 H   0  0  0  0  0  0
   -2.4633   -3.2446   -0.3314 H   0  0  0  0  0  0
   -3.3163   -1.8194   -2.9004 H   0  0  0  0  0  0
   -1.7248   -1.7736   -2.2472 H   0  0  0  0  0  0
   -1.8253   -3.5202   -3.9739 H   0  0  0  0  0  0
   -1.4897   -4.2508   -2.4419 H   0  0  0  0  0  0
   -4.2507   -4.0384   -3.7330 H   0  0  0  0  0  0
   -5.0345   -5.4727   -1.8537 H   0  0  0  0  0  0
   -3.4533   -5.4600   -1.1526 H   0  0  0  0  0  0
   -4.8886   -3.7918   -0.0616 H   0  0  0  0  0  0
   -5.2549   -2.9905   -1.5472 H   0  0  0  0  0  0
   -2.4853   -6.5201   -3.3457 H   0  0  0  0  0  0
   -2.8010   -5.7196   -4.8826 H   0  0  0  0  0  0
   -4.1113   -6.5147   -4.0231 H   0  0  0  0  0  0
  1  5  2  0  0  0
  1  2  1  0  0  0
  1 30  1  0  0  0
  2  7  1  0  0  0
  2  3  1  0  0  0
  3  4  2  0  0  0
  4  5  1  0  0  0
  5  6  1  0  0  0
  6 11  1  0  0  0
  6 23  1  0  0  0
  6 12  1  0  0  0
  7  8  1  0  0  0
  7  9  1  0  0  0
  7 31  1  0  0  0
  8 15  1  0  0  0
  8 32  1  0  0  0
  8 33  1  0  0  0
  9 10  3  0  0  0
 11 34  1  0  0  0
 11 35  1  0  0  0
 11 36  1  0  0  0
 12 13  1  0  0  0
 12 37  1  0  0  0
 13 18  1  0  0  0
 13 14  2  0  0  0
 15 16  1  0  0  0
 15 38  1  0  0  0
 15 39  1  0  0  0
 16 17  1  0  0  0
 16 40  1  0  0  0
 16 41  1  0  0  0
 17 42  1  0  0  0
 17 43  1  0  0  0
 17 44  1  0  0  0
 18 19  1  0  0  0
 18 22  2  0  0  0
 19 20  2  0  0  0
 19 45  1  0  0  0
 20 21  1  0  0  0
 20 46  1  0  0  0
 21 22  1  0  0  0
 22 47  1  0  0  0
 23 24  1  0  0  0
 23 28  1  0  0  0
 23 48  1  0  0  0
 24 25  1  0  0  0
 24 49  1  0  0  0
 24 50  1  0  0  0
 25 26  1  0  0  0
 25 51  1  0  0  0
 25 52  1  0  0  0
 26 27  1  0  0  0
 26 29  1  0  0  0
 26 53  1  0  0  0
 27 28  1  0  0  0
 27 54  1  0  0  0
 27 55  1  0  0  0
 28 56  1  0  0  0
 28 57  1  0  0  0
 29 58  1  0  0  0
 29 59  1  0  0  0
 29 60  1  0  0  0
M  END
> <chembl_id>
CHEMBL3085035

> <chembl_pref_name>
None

> <i_m_ct_stereo_status>
1

> <s_m_source_file>
sdf/inactives_sanitized.sdf

> <i_m_source_file_index>
145

> <i_lp_mmshare_version>
49012

> <i_f3d_flags>
0

> <s_epik_input>
W0NIM11bQ0gyXVtDSDJdW0NIMl1bQ0BASF0oQyNOKW4xW2NIXWMobm4xKVtDQF0oW0NIM10pKFtDQEBIXTJbQ0gyXVtDSDJdW0NAQEhdKFtDSDNdKVtDSDJdW0NIMl0yKVtOSF1DKD1PKWMzW2NIXVtjSF1zW2NIXTM=

> <s_epik_cmdline>
J2VwaWtfcHl0aG9uJywgJy1waHQnLCAnMC41JywgJy1waCcsICc3LjUnLCAnLW50JywgJy1tYScsICcyMDAnLCAnLWltYWUnLCAnPGluZmlsZS5tYWU+JywgJy1vbWFlJywgJzxvdXRmaWxlLm1hZT4n

> <r_lp_tautomer_probability>
1

> <r_epik_Ionization_Penalty>
  0.0000

> <r_epik_Ionization_Penalty_Charging>
  0.0000

> <r_epik_Ionization_Penalty_Neutral>
  0.0000

> <r_epik_State_Penalty>
 -0.0000

> <r_epik_Charging_Adjusted_Penalty>
0

> <i_epik_Tot_Q>
0

> <i_epik_Tot_abs_Q>
0

> <s_lp_Force_Field>
OPLS3e

> <r_lp_Energy>
22.536245

> <b_lp_Chiralities_Consistent>
1

> <s_lp_Variant>
sdf/inactives_sanitized.sdf:145-1

$$$$
sdf/inactives_sanitized.sdf:146
                    3D
 Schrodinger Suite 2020-1.
 46 46  0  0  1  0            999 V2000
   -0.1260    0.0635    0.0544 N   0  0  0  0  0  0
    1.3439    0.0958    0.0613 C   0  0  2  0  0  0
    1.8986   -0.4500   -1.2731 C   0  0  0  0  0  0
    2.6528    0.3912   -2.0001 N   0  0  0  0  0  0
    1.6634   -1.6145   -1.5994 O   0  0  0  0  0  0
    1.9626   -0.6370    1.2886 C   0  0  0  0  0  0
    3.2180    0.0605   -3.3044 C   0  0  0  0  0  0
    2.1895   -0.1517   -4.3387 C   0  0  0  0  0  0
    1.3824   -0.3180   -5.1509 N   0  0  0  0  0  0
   -0.8715    1.1223   -0.4521 C   0  0  0  0  0  0
   -2.1799    0.8302   -0.3260 O   0  0  0  0  0  0
   -0.4253    2.1648   -0.9386 O   0  0  0  0  0  0
   -3.1755    1.7514   -0.7550 C   0  0  0  0  0  0
   -4.5537    1.1918   -0.4513 C   0  0  0  0  0  0
   -4.9919    1.1037    0.8727 C   0  0  0  0  0  0
   -6.2574    0.5945    1.1522 C   0  0  0  0  0  0
   -7.0793    0.1768    0.1073 C   0  0  0  0  0  0
   -6.6475    0.2637   -1.2147 C   0  0  0  0  0  0
   -5.3819    0.7728   -1.4953 C   0  0  0  0  0  0
    1.6948   -0.0644    2.7197 C   0  0  0  0  0  0
    2.5597   -0.8653    3.7229 C   0  0  0  0  0  0
    0.2136   -0.2205    3.1416 C   0  0  0  0  0  0
    2.0992    1.4258    2.8122 C   0  0  0  0  0  0
   -0.5975   -0.7589    0.4016 H   0  0  0  0  0  0
    1.6733    1.1334    0.1519 H   0  0  0  0  0  0
    2.7811    1.3392   -1.6758 H   0  0  0  0  0  0
    3.0455   -0.6654    1.1456 H   0  0  0  0  0  0
    1.6460   -1.6822    1.2691 H   0  0  0  0  0  0
    3.8576    0.8806   -3.6306 H   0  0  0  0  0  0
    3.8458   -0.8297   -3.2414 H   0  0  0  0  0  0
   -3.0589    2.7094   -0.2453 H   0  0  0  0  0  0
   -3.0770    1.9437   -1.8250 H   0  0  0  0  0  0
   -4.3538    1.4273    1.6823 H   0  0  0  0  0  0
   -6.6004    0.5240    2.1739 H   0  0  0  0  0  0
   -8.0610   -0.2178    0.3245 H   0  0  0  0  0  0
   -7.2917   -0.0622   -2.0180 H   0  0  0  0  0  0
   -5.0485    0.8397   -2.5209 H   0  0  0  0  0  0
    2.4218   -0.5139    4.7467 H   0  0  0  0  0  0
    3.6237   -0.7802    3.4963 H   0  0  0  0  0  0
    2.3091   -1.9271    3.7099 H   0  0  0  0  0  0
   -0.1508   -1.2329    2.9631 H   0  0  0  0  0  0
   -0.4429    0.4665    2.6089 H   0  0  0  0  0  0
    0.0758   -0.0102    4.2033 H   0  0  0  0  0  0
    2.0424    1.7929    3.8380 H   0  0  0  0  0  0
    1.4462    2.0630    2.2147 H   0  0  0  0  0  0
    3.1211    1.5860    2.4658 H   0  0  0  0  0  0
  1  2  1  0  0  0
  1 10  1  0  0  0
  1 24  1  0  0  0
  2  3  1  0  0  0
  2  6  1  0  0  0
  2 25  1  0  0  0
  3  4  1  0  0  0
  3  5  2  0  0  0
  4  7  1  0  0  0
  4 26  1  0  0  0
  6 20  1  0  0  0
  6 27  1  0  0  0
  6 28  1  0  0  0
  7  8  1  0  0  0
  7 29  1  0  0  0
  7 30  1  0  0  0
  8  9  3  0  0  0
 10 12  2  0  0  0
 10 11  1  0  0  0
 11 13  1  0  0  0
 13 14  1  0  0  0
 13 31  1  0  0  0
 13 32  1  0  0  0
 14 15  2  0  0  0
 14 19  1  0  0  0
 15 16  1  0  0  0
 15 33  1  0  0  0
 16 17  2  0  0  0
 16 34  1  0  0  0
 17 18  1  0  0  0
 17 35  1  0  0  0
 18 19  2  0  0  0
 18 36  1  0  0  0
 19 37  1  0  0  0
 20 21  1  0  0  0
 20 22  1  0  0  0
 20 23  1  0  0  0
 21 38  1  0  0  0
 21 39  1  0  0  0
 21 40  1  0  0  0
 22 41  1  0  0  0
 22 42  1  0  0  0
 22 43  1  0  0  0
 23 44  1  0  0  0
 23 45  1  0  0  0
 23 46  1  0  0  0
M  END
> <chembl_id>
CHEMBL200529

> <chembl_pref_name>
None

> <i_m_ct_stereo_status>
1

> <s_m_source_file>
sdf/inactives_sanitized.sdf

> <i_m_source_file_index>
146

> <i_lp_mmshare_version>
49012

> <i_f3d_flags>
0

> <s_epik_input>
TiNDW0NIMl1bTkhdQyg9TylbQ0BIXShbQ0gyXUMoW0NIM10pKFtDSDNdKVtDSDNdKVtOSF1DKD1PKU9bQ0gyXWMxW2NIXVtjSF1bY0hdW2NIXVtjSF0x

> <s_epik_cmdline>
J2VwaWtfcHl0aG9uJywgJy1waHQnLCAnMC41JywgJy1waCcsICc3LjUnLCAnLW50JywgJy1tYScsICcyMDAnLCAnLWltYWUnLCAnPGluZmlsZS5tYWU+JywgJy1vbWFlJywgJzxvdXRmaWxlLm1hZT4n

> <r_lp_tautomer_probability>
1

> <r_epik_Ionization_Penalty>
  0.0000

> <r_epik_Ionization_Penalty_Charging>
  0.0000

> <r_epik_Ionization_Penalty_Neutral>
  0.0000

> <r_epik_State_Penalty>
 -0.0000

> <r_epik_Charging_Adjusted_Penalty>
0

> <i_epik_Tot_Q>
0

> <i_epik_Tot_abs_Q>
0

> <s_epik_Chemistry_Notes>
This compound has an ester and may undergo hydrolysis at high or low pH.

> <s_lp_Force_Field>
OPLS3e

> <r_lp_Energy>
22.738562

> <b_lp_Chiralities_Consistent>
1

> <s_lp_Variant>
sdf/inactives_sanitized.sdf:146-1

$$$$
sdf/inactives_sanitized.sdf:147
                    3D
 Schrodinger Suite 2020-1.
 37 38  0  0  1  0            999 V2000
   -2.0186   -0.8266    1.2803 C   0  0  0  0  0  0
   -0.4815   -0.6926    1.2250 C   0  0  0  0  0  0
    0.0165    0.1360   -0.0087 C   0  0  0  0  0  0
   -0.5388   -0.5952   -1.2773 C   0  0  0  0  0  0
   -2.0775   -0.7346   -1.2710 C   0  0  0  0  0  0
   -2.5751   -1.4617   -0.0078 C   0  0  0  0  0  0
   -0.4359    1.5459    0.0188 N   0  0  0  0  0  0
    1.5826    0.0281   -0.0760 C   0  0  0  0  0  0
    2.1803    0.4080   -1.2227 N   0  0  0  0  0  0
    2.2471   -0.2343    0.9295 O   0  0  0  0  0  0
    3.6236    0.4220   -1.4457 C   0  0  0  0  0  0
    4.2144   -0.9280   -1.4435 C   0  0  0  0  0  0
    4.6780   -1.9882   -1.4429 N   0  0  0  0  0  0
   -0.0822    2.5306    0.8744 C   0  0  0  0  0  0
   -0.7384    3.7935    0.6281 C   0  0  0  0  0  0
    0.7441    2.3956    1.7780 O   0  0  0  0  0  0
   -0.3353    5.1898    1.5938 S   0  0  0  0  0  0
   -1.4805    6.1649    0.7313 C   0  0  0  0  0  0
   -2.1422    5.4418   -0.2492 C   0  0  0  0  0  0
   -1.7295    4.1067   -0.3090 C   0  0  0  0  0  0
   -1.7094    7.9999    1.1790 Br  0  0  0  0  0  0
   -2.3081   -1.4267    2.1435 H   0  0  0  0  0  0
   -2.4706    0.1556    1.4286 H   0  0  0  0  0  0
   -0.1942   -0.1759    2.1426 H   0  0  0  0  0  0
    0.0072   -1.6671    1.2926 H   0  0  0  0  0  0
   -0.3018   -0.0061   -2.1658 H   0  0  0  0  0  0
   -0.0496   -1.5575   -1.4467 H   0  0  0  0  0  0
   -2.5396    0.2521   -1.3285 H   0  0  0  0  0  0
   -2.4054   -1.2742   -2.1603 H   0  0  0  0  0  0
   -3.6654   -1.4616    0.0174 H   0  0  0  0  0  0
   -2.2725   -2.5092   -0.0521 H   0  0  0  0  0  0
   -1.3401    1.6806   -0.4089 H   0  0  0  0  0  0
    1.6010    0.6424   -2.0153 H   0  0  0  0  0  0
    3.8280    0.8781   -2.4142 H   0  0  0  0  0  0
    4.1270    1.0300   -0.6921 H   0  0  0  0  0  0
   -2.8969    5.8648   -0.8956 H   0  0  0  0  0  0
   -2.1428    3.3984   -1.0125 H   0  0  0  0  0  0
  1  2  1  0  0  0
  1  6  1  0  0  0
  1 22  1  0  0  0
  1 23  1  0  0  0
  2  3  1  0  0  0
  2 24  1  0  0  0
  2 25  1  0  0  0
  3  4  1  0  0  0
  3  7  1  0  0  0
  3  8  1  0  0  0
  4  5  1  0  0  0
  4 26  1  0  0  0
  4 27  1  0  0  0
  5  6  1  0  0  0
  5 28  1  0  0  0
  5 29  1  0  0  0
  6 30  1  0  0  0
  6 31  1  0  0  0
  7 14  1  0  0  0
  7 32  1  0  0  0
  8  9  1  0  0  0
  8 10  2  0  0  0
  9 11  1  0  0  0
  9 33  1  0  0  0
 11 12  1  0  0  0
 11 34  1  0  0  0
 11 35  1  0  0  0
 12 13  3  0  0  0
 14 15  1  0  0  0
 14 16  2  0  0  0
 15 17  1  0  0  0
 15 20  2  0  0  0
 17 18  1  0  0  0
 18 19  2  0  0  0
 18 21  1  0  0  0
 19 20  1  0  0  0
 19 36  1  0  0  0
 20 37  1  0  0  0
M  END
> <chembl_id>
CHEMBL200167

> <chembl_pref_name>
None

> <s_m_source_file>
sdf/inactives_sanitized.sdf

> <i_m_source_file_index>
147

> <i_lp_mmshare_version>
49012

> <i_m_ct_stereo_status>
1

> <i_f3d_flags>
0

> <s_epik_input>
W0NIMl0xW0NIMl1bQ0gyXVtDSDJdW0NIMl1DMShDKD1PKVtOSF1bQ0gyXUMjTilbTkhdQyg9TyljMnNjKEJyKVtjSF1bY0hdMg==

> <s_epik_cmdline>
J2VwaWtfcHl0aG9uJywgJy1waHQnLCAnMC41JywgJy1waCcsICc3LjUnLCAnLW50JywgJy1tYScsICcyMDAnLCAnLWltYWUnLCAnPGluZmlsZS5tYWU+JywgJy1vbWFlJywgJzxvdXRmaWxlLm1hZT4n

> <r_lp_tautomer_probability>
1

> <r_epik_Ionization_Penalty>
  0.0000

> <r_epik_Ionization_Penalty_Charging>
  0.0000

> <r_epik_Ionization_Penalty_Neutral>
  0.0000

> <r_epik_State_Penalty>
 -0.0000

> <r_epik_Charging_Adjusted_Penalty>
0

> <i_epik_Tot_Q>
0

> <i_epik_Tot_abs_Q>
0

> <s_lp_Force_Field>
OPLS3e

> <r_lp_Energy>
28.556237

> <b_lp_Chiralities_Consistent>
1

> <s_lp_Variant>
sdf/inactives_sanitized.sdf:147-1

$$$$
sdf/inactives_sanitized.sdf:148
                    3D
 Schrodinger Suite 2020-1.
 83 85  0  0  1  0            999 V2000
   -0.0215    2.2353    0.9530 C   0  0  0  0  0  0
    0.0748    0.8456    0.3042 C   0  0  2  0  0  0
    2.2954    1.0497   -0.9305 C   0  0  0  0  0  0
    1.4796    0.5037   -0.0043 N   0  0  0  0  0  0
   -1.3363    2.4995    1.7920 C   0  0  0  0  0  0
    5.0889    2.4118   -0.2094 C   0  0  0  0  0  0
    3.7294    0.4690   -0.9906 C   0  0  2  0  0  0
    4.7404    1.5168   -1.2163 N   0  0  0  0  0  0
   -6.6365    4.2595    1.8484 N   0  0  0  0  0  0
    0.8432    3.1145    0.8769 O   0  0  0  0  0  0
   -0.8285    0.6802   -0.9568 C   0  0  0  0  0  0
    1.9558    1.9303   -1.7230 O   0  0  0  0  0  0
    4.6754    2.4013    0.9533 O   0  0  0  0  0  0
   -1.9777    1.5757    2.2957 O   0  0  0  0  0  0
    5.9566    3.3116   -0.7097 O   0  0  0  0  0  0
    3.8756   -0.5809   -2.1276 C   0  0  0  0  0  0
   -1.6446    3.8078    1.8599 N   0  0  0  0  0  0
   -9.2387    4.6662    0.7434 O   0  0  0  0  0  0
    6.4641    4.3622    0.1034 C   0  0  0  0  0  0
   -2.3091    0.4365   -0.7134 C   0  0  0  0  0  0
   -5.3694    4.7444    2.4037 C   0  0  0  0  0  0
    7.2986    5.3008   -0.7473 C   0  0  0  0  0  0
   -4.1384    4.0855    1.7486 C   0  0  0  0  0  0
   -7.7663    4.6953    2.6792 C   0  0  0  0  0  0
   -6.8254    4.6238    0.4359 C   0  0  0  0  0  0
    3.0501   -1.8818   -1.9596 C   0  0  0  0  0  0
   -2.8311    4.3461    2.5213 C   0  0  0  0  0  0
   -9.1150    4.2276    2.0917 C   0  0  0  0  0  0
   -8.2009    4.1588   -0.0881 C   0  0  0  0  0  0
   -2.7480   -0.7899   -0.1716 C   0  0  0  0  0  0
   -3.2474    1.4706   -0.9204 C   0  0  0  0  0  0
    6.6937    6.3928   -1.3738 C   0  0  0  0  0  0
    8.6672    5.0686   -0.9027 C   0  0  0  0  0  0
    3.4096   -2.6493   -0.6691 C   0  0  0  0  0  0
    3.1585   -2.7717   -3.2166 C   0  0  0  0  0  0
    7.4588    7.2544   -2.1557 C   0  0  0  0  0  0
   -4.0934   -0.9797    0.1152 C   0  0  0  0  0  0
   -4.5892    1.2572   -0.6336 C   0  0  0  0  0  0
    9.4317    5.9310   -1.6845 C   0  0  0  0  0  0
    8.8241    7.0199   -2.3069 C   0  0  0  0  0  0
   -5.0099    0.0380   -0.1184 C   0  0  0  0  0  0
   -0.2137    0.0933    1.0401 H   0  0  0  0  0  0
    1.8687   -0.2156    0.5880 H   0  0  0  0  0  0
    3.9752   -0.0203   -0.0451 H   0  0  0  0  0  0
    5.0692    1.6777   -2.1570 H   0  0  0  0  0  0
   -0.7067    1.5280   -1.6332 H   0  0  0  0  0  0
   -0.4707   -0.1715   -1.5384 H   0  0  0  0  0  0
    3.6126   -0.1148   -3.0799 H   0  0  0  0  0  0
    4.9252   -0.8670   -2.2207 H   0  0  0  0  0  0
   -1.0347    4.4741    1.4077 H   0  0  0  0  0  0
    5.6501    4.9214    0.5686 H   0  0  0  0  0  0
    7.0739    3.9580    0.9133 H   0  0  0  0  0  0
   -5.3103    5.8285    2.2913 H   0  0  0  0  0  0
   -5.3327    4.5615    3.4791 H   0  0  0  0  0  0
   -4.3090    3.0174    1.6077 H   0  0  0  0  0  0
   -4.0023    4.5136    0.7543 H   0  0  0  0  0  0
   -7.6461    4.3029    3.6899 H   0  0  0  0  0  0
   -7.7577    5.7827    2.7740 H   0  0  0  0  0  0
   -6.7306    5.7050    0.3213 H   0  0  0  0  0  0
   -6.0355    4.1868   -0.1739 H   0  0  0  0  0  0
    1.9992   -1.6002   -1.8843 H   0  0  0  0  0  0
   -2.6939    5.4206    2.6489 H   0  0  0  0  0  0
   -2.9112    3.9598    3.5395 H   0  0  0  0  0  0
   -9.2131    3.1420    2.1509 H   0  0  0  0  0  0
   -9.9379    4.6460    2.6713 H   0  0  0  0  0  0
   -8.2512    3.0694   -0.1421 H   0  0  0  0  0  0
   -8.3561    4.5262   -1.1025 H   0  0  0  0  0  0
   -2.0400   -1.5814    0.0259 H   0  0  0  0  0  0
   -2.9267    2.4300   -1.2995 H   0  0  0  0  0  0
    5.6347    6.5734   -1.2574 H   0  0  0  0  0  0
    9.1368    4.2233   -0.4209 H   0  0  0  0  0  0
    4.3627   -2.3239   -0.2515 H   0  0  0  0  0  0
    3.4817   -3.7255   -0.8254 H   0  0  0  0  0  0
    2.6478   -2.4921    0.0950 H   0  0  0  0  0  0
    3.6799   -3.7097   -3.0262 H   0  0  0  0  0  0
    3.6950   -2.2747   -4.0252 H   0  0  0  0  0  0
    2.1685   -3.0233   -3.5981 H   0  0  0  0  0  0
    6.9956    8.1000   -2.6427 H   0  0  0  0  0  0
   -4.4282   -1.9202    0.5272 H   0  0  0  0  0  0
   -5.3073    2.0459   -0.8004 H   0  0  0  0  0  0
   10.4904    5.7567   -1.8080 H   0  0  0  0  0  0
    9.4176    7.6883   -2.9133 H   0  0  0  0  0  0
   -6.0543   -0.1161    0.1098 H   0  0  0  0  0  0
  1  2  1  0  0  0
  1  5  1  0  0  0
  1 10  2  0  0  0
  2  4  1  0  0  0
  2 11  1  0  0  0
  2 42  1  0  0  0
  3  4  1  0  0  0
  3  7  1  0  0  0
  3 12  2  0  0  0
  4 43  1  0  0  0
  5 14  2  0  0  0
  5 17  1  0  0  0
  6  8  1  0  0  0
  6 13  2  0  0  0
  6 15  1  0  0  0
  7  8  1  0  0  0
  7 16  1  0  0  0
  7 44  1  0  0  0
  8 45  1  0  0  0
  9 21  1  0  0  0
  9 24  1  0  0  0
  9 25  1  0  0  0
 11 20  1  0  0  0
 11 46  1  0  0  0
 11 47  1  0  0  0
 15 19  1  0  0  0
 16 26  1  0  0  0
 16 48  1  0  0  0
 16 49  1  0  0  0
 17 27  1  0  0  0
 17 50  1  0  0  0
 18 29  1  0  0  0
 18 28  1  0  0  0
 19 22  1  0  0  0
 19 51  1  0  0  0
 19 52  1  0  0  0
 20 30  2  0  0  0
 20 31  1  0  0  0
 21 23  1  0  0  0
 21 53  1  0  0  0
 21 54  1  0  0  0
 22 32  2  0  0  0
 22 33  1  0  0  0
 23 27  1  0  0  0
 23 55  1  0  0  0
 23 56  1  0  0  0
 24 28  1  0  0  0
 24 57  1  0  0  0
 24 58  1  0  0  0
 25 29  1  0  0  0
 25 59  1  0  0  0
 25 60  1  0  0  0
 26 34  1  0  0  0
 26 35  1  0  0  0
 26 61  1  0  0  0
 27 62  1  0  0  0
 27 63  1  0  0  0
 28 64  1  0  0  0
 28 65  1  0  0  0
 29 66  1  0  0  0
 29 67  1  0  0  0
 30 37  1  0  0  0
 30 68  1  0  0  0
 31 38  2  0  0  0
 31 69  1  0  0  0
 32 36  1  0  0  0
 32 70  1  0  0  0
 33 39  2  0  0  0
 33 71  1  0  0  0
 34 72  1  0  0  0
 34 73  1  0  0  0
 34 74  1  0  0  0
 35 75  1  0  0  0
 35 76  1  0  0  0
 35 77  1  0  0  0
 36 40  2  0  0  0
 36 78  1  0  0  0
 37 41  2  0  0  0
 37 79  1  0  0  0
 38 41  1  0  0  0
 38 80  1  0  0  0
 39 40  1  0  0  0
 39 81  1  0  0  0
 40 82  1  0  0  0
 41 83  1  0  0  0
M  END
> <chembl_id>
CHEMBL335291

> <chembl_pref_name>
None

> <s_m_source_file>
sdf/inactives_sanitized.sdf

> <i_m_source_file_index>
148

> <i_lp_mmshare_version>
49012

> <i_m_ct_stereo_status>
1

> <i_f3d_flags>
0

> <s_epik_input>
W0NIMl0xW0NIMl1PW0NIMl1bQ0gyXU4xW0NIMl1bQ0gyXVtDSDJdW05IXUMoPU8pQyg9TylbQ0BASF0oW0NIMl1jMltjSF1bY0hdW2NIXVtjSF1bY0hdMilbTkhdQyg9TylbQ0BASF0oW0NIMl1bQ0hdKFtDSDNdKVtDSDNdKVtOSF1DKD1PKU9bQ0gyXWMzW2NIXVtjSF1bY0hdW2NIXVtjSF0z

> <s_epik_cmdline>
J2VwaWtfcHl0aG9uJywgJy1waHQnLCAnMC41JywgJy1waCcsICc3LjUnLCAnLW50JywgJy1tYScsICcyMDAnLCAnLWltYWUnLCAnPGluZmlsZS5tYWU+JywgJy1vbWFlJywgJzxvdXRmaWxlLm1hZT4n

> <r_lp_tautomer_probability>
0.99990000499975

> <r_epik_Ionization_Penalty>
  0.1884

> <r_epik_Ionization_Penalty_Charging>
  0.0000

> <r_epik_Ionization_Penalty_Neutral>
  0.1884

> <r_epik_State_Penalty>
  0.1780

> <r_epik_Charging_Adjusted_Penalty>
0.177958204080525

> <i_epik_Tot_Q>
0

> <i_epik_Tot_abs_Q>
0

> <s_epik_Chemistry_Notes>
This compound has an ester and may undergo hydrolysis at high or low pH.

> <s_lp_Force_Field>
OPLS3e

> <r_lp_Energy>
42.250943

> <b_lp_Chiralities_Consistent>
1

> <s_lp_Variant>
sdf/inactives_sanitized.sdf:148-1

$$$$
sdf/inactives_sanitized.sdf:149
                    3D
 Schrodinger Suite 2020-1.
 41 43  0  0  1  0            999 V2000
   -1.9610   -0.3635    1.5509 O   0  0  0  0  0  0
   -0.6336   -0.6987    1.2391 C   0  0  2  0  0  0
    2.1912    0.8653    0.8259 C   0  0  0  0  0  0
   -0.9871    0.1338    2.4318 C   0  0  0  0  0  0
   -0.0129   -0.0218   -0.0009 C   0  0  1  0  0  0
    1.4519   -0.0227    0.0591 N   0  0  0  0  0  0
   -0.5181   -0.6877   -1.3012 C   0  0  0  0  0  0
    1.7424    1.7675    1.5369 O   0  0  0  0  0  0
    3.4985    0.5905    0.6623 O   0  0  0  0  0  0
    4.4986    1.3746    1.3059 C   0  0  0  0  0  0
   -0.0561    0.0154   -2.5731 C   0  0  0  0  0  0
    5.8946    0.9270    0.8903 C   0  0  0  0  0  0
    1.0626   -0.4553   -3.2670 C   0  0  0  0  0  0
   -0.7479    1.1372   -3.0380 C   0  0  0  0  0  0
    6.9292    0.9701    1.8285 C   0  0  0  0  0  0
    6.1555    0.4973   -0.4163 C   0  0  0  0  0  0
    8.2151    0.5749    1.4680 C   0  0  0  0  0  0
    7.4409    0.1007   -0.7758 C   0  0  0  0  0  0
   -0.3215    1.7872   -4.1933 C   0  0  0  0  0  0
    1.4887    0.1953   -4.4220 C   0  0  0  0  0  0
    0.7946    1.3133   -4.8801 C   0  0  0  0  0  0
    8.4647    0.1405    0.1681 C   0  0  0  0  0  0
   -0.3636   -1.7462    1.3777 H   0  0  0  0  0  0
   -0.8426    1.2144    2.4219 H   0  0  0  0  0  0
   -0.9713   -0.3069    3.4285 H   0  0  0  0  0  0
   -0.3460    1.0188   -0.0410 H   0  0  0  0  0  0
    1.9478   -0.7240   -0.4713 H   0  0  0  0  0  0
   -0.2077   -1.7338   -1.3353 H   0  0  0  0  0  0
   -1.6093   -0.7173   -1.3044 H   0  0  0  0  0  0
    4.3773    2.4297    1.0546 H   0  0  0  0  0  0
    4.3883    1.2742    2.3873 H   0  0  0  0  0  0
    1.6042   -1.3196   -2.9109 H   0  0  0  0  0  0
   -1.6115    1.5069   -2.5039 H   0  0  0  0  0  0
    6.7398    1.3082    2.8371 H   0  0  0  0  0  0
    5.3673    0.4703   -1.1548 H   0  0  0  0  0  0
    9.0154    0.6060    2.1927 H   0  0  0  0  0  0
    7.6436   -0.2344   -1.7824 H   0  0  0  0  0  0
   -0.8527    2.6556   -4.5545 H   0  0  0  0  0  0
    2.3538   -0.1645   -4.9596 H   0  0  0  0  0  0
    1.1251    1.8175   -5.7762 H   0  0  0  0  0  0
    9.4621   -0.1660   -0.1111 H   0  0  0  0  0  0
  1  2  1  0  0  0
  1  4  1  0  0  0
  2  5  1  0  0  0
  2  4  1  0  0  0
  2 23  1  0  0  0
  3  6  1  0  0  0
  3  8  2  0  0  0
  3  9  1  0  0  0
  4 24  1  0  0  0
  4 25  1  0  0  0
  5  6  1  0  0  0
  5  7  1  0  0  0
  5 26  1  0  0  0
  6 27  1  0  0  0
  7 11  1  0  0  0
  7 28  1  0  0  0
  7 29  1  0  0  0
  9 10  1  0  0  0
 10 12  1  0  0  0
 10 30  1  0  0  0
 10 31  1  0  0  0
 11 13  2  0  0  0
 11 14  1  0  0  0
 12 15  2  0  0  0
 12 16  1  0  0  0
 13 20  1  0  0  0
 13 32  1  0  0  0
 14 19  2  0  0  0
 14 33  1  0  0  0
 15 17  1  0  0  0
 15 34  1  0  0  0
 16 18  2  0  0  0
 16 35  1  0  0  0
 17 22  2  0  0  0
 17 36  1  0  0  0
 18 22  1  0  0  0
 18 37  1  0  0  0
 19 21  1  0  0  0
 19 38  1  0  0  0
 20 21  2  0  0  0
 20 39  1  0  0  0
 21 40  1  0  0  0
 22 41  1  0  0  0
M  END
> <chembl_id>
CHEMBL298965

> <chembl_pref_name>
None

> <i_m_ct_stereo_status>
1

> <s_m_source_file>
sdf/inactives_sanitized.sdf

> <i_m_source_file_index>
149

> <i_lp_mmshare_version>
49012

> <i_f3d_flags>
0

> <s_epik_input>
W2NIXTFbY0hdW2NIXVtjSF1bY0hdYzFbQ0gyXVtDQEBIXShbQ0BASF0yT1tDSDJdMilbTkhdQyg9TylPW0NIMl1jM1tjSF1bY0hdW2NIXVtjSF1bY0hdMw==

> <s_epik_cmdline>
J2VwaWtfcHl0aG9uJywgJy1waHQnLCAnMC41JywgJy1waCcsICc3LjUnLCAnLW50JywgJy1tYScsICcyMDAnLCAnLWltYWUnLCAnPGluZmlsZS5tYWU+JywgJy1vbWFlJywgJzxvdXRmaWxlLm1hZT4n

> <r_lp_tautomer_probability>
1

> <r_epik_Ionization_Penalty>
  0.0000

> <r_epik_Ionization_Penalty_Charging>
  0.0000

> <r_epik_Ionization_Penalty_Neutral>
  0.0000

> <r_epik_State_Penalty>
 -0.0000

> <r_epik_Charging_Adjusted_Penalty>
0

> <i_epik_Tot_Q>
0

> <i_epik_Tot_abs_Q>
0

> <s_epik_Chemistry_Notes>
This compound has an ester and may undergo hydrolysis at high or low pH.

> <s_lp_Force_Field>
OPLS3e

> <r_lp_Energy>
21.463054

> <b_lp_Chiralities_Consistent>
1

> <s_lp_Variant>
sdf/inactives_sanitized.sdf:149-1

$$$$
sdf/inactives_sanitized.sdf:150
                    3D
 Schrodinger Suite 2020-1.
 29 30  0  0  1  0            999 V2000
   -1.7525    1.2920   -0.4072 C   0  0  0  0  0  0
   -0.2855    1.3704   -0.4463 C   0  0  0  0  0  0
    0.4750   -0.1053    0.2965 S   0  0  0  0  0  0
    2.2294    0.2496    0.0718 C   0  0  0  0  0  0
    2.5801    1.3622   -0.4903 N   0  0  0  0  0  0
    3.9600    1.6824   -0.5186 C   0  0  0  0  0  0
    4.8036    0.7910    0.0974 N   0  0  0  0  0  0
    4.3720   -0.4022    0.6427 C   0  0  0  0  0  0
    3.1124   -0.7206    0.5636 N   0  0  0  0  0  0
    4.5009    2.6689   -1.0121 O   0  0  0  0  0  0
    5.5660   -1.5304    1.3919 S   0  0  0  0  0  0
    4.5097   -2.9381    1.8649 C   0  0  0  0  0  0
    5.3286   -4.0292    2.5341 C   0  0  0  0  0  0
    5.9014   -5.0443    1.7626 C   0  0  0  0  0  0
    6.6453   -6.0484    2.3768 C   0  0  0  0  0  0
    6.8114   -6.0358    3.7602 C   0  0  0  0  0  0
    6.2392   -5.0292    4.5356 C   0  0  0  0  0  0
    5.4945   -4.0252    3.9219 C   0  0  0  0  0  0
   -2.9074    1.2305   -0.3765 N   0  0  0  0  0  0
    0.0155    2.2665    0.0966 H   0  0  0  0  0  0
    0.0149    1.4688   -1.4897 H   0  0  0  0  0  0
    3.7232   -2.6037    2.5432 H   0  0  0  0  0  0
    4.0126   -3.3443    0.9825 H   0  0  0  0  0  0
    5.7742   -5.0544    0.6897 H   0  0  0  0  0  0
    7.0916   -6.8331    1.7837 H   0  0  0  0  0  0
    7.3886   -6.8147    4.2363 H   0  0  0  0  0  0
    6.3721   -5.0280    5.6075 H   0  0  0  0  0  0
    5.0504   -3.2455    4.5239 H   0  0  0  0  0  0
    5.7867    1.0195    0.1082 H   0  0  0  0  0  0
  1  2  1  0  0  0
  1 19  3  0  0  0
  2  3  1  0  0  0
  2 20  1  0  0  0
  2 21  1  0  0  0
  3  4  1  0  0  0
  4  5  2  0  0  0
  4  9  1  0  0  0
  5  6  1  0  0  0
  6 10  2  0  0  0
  6  7  1  0  0  0
  7  8  1  0  0  0
  7 29  1  0  0  0
  8 11  1  0  0  0
  8  9  2  0  0  0
 11 12  1  0  0  0
 12 13  1  0  0  0
 12 22  1  0  0  0
 12 23  1  0  0  0
 13 14  2  0  0  0
 13 18  1  0  0  0
 14 15  1  0  0  0
 14 24  1  0  0  0
 15 16  2  0  0  0
 15 25  1  0  0  0
 16 17  1  0  0  0
 16 26  1  0  0  0
 17 18  2  0  0  0
 17 27  1  0  0  0
 18 28  1  0  0  0
M  END
> <chembl_id>
CHEMBL1836514

> <chembl_pref_name>
None

> <s_m_source_file>
sdf/inactives_sanitized.sdf

> <i_m_source_file_index>
150

> <i_lp_mmshare_version>
49012

> <i_m_ct_stereo_status>
1

> <i_f3d_flags>
0

> <s_epik_input>
TiNDW0NIMl1TYzFbbkhdYyg9TyluYyhuMSlTW0NIMl1jMltjSF1bY0hdW2NIXVtjSF1bY0hdMg==

> <s_epik_cmdline>
J2VwaWtfcHl0aG9uJywgJy1waHQnLCAnMC41JywgJy1waCcsICc3LjUnLCAnLW50JywgJy1tYScsICcyMDAnLCAnLWltYWUnLCAnPGluZmlsZS5tYWU+JywgJy1vbWFlJywgJzxvdXRmaWxlLm1hZT4n

> <r_epik_Ionization_Penalty>
  0.0055

> <r_epik_Ionization_Penalty_Charging>
  0.0023

> <r_epik_Ionization_Penalty_Neutral>
  0.0031

> <r_epik_State_Penalty>
  0.0526

> <r_epik_Charging_Adjusted_Penalty>
0.0549520275280298

> <i_epik_Tot_Q>
0

> <i_epik_Tot_abs_Q>
0

> <s_lp_Force_Field>
OPLS3e

> <r_lp_Energy>
31.49374

> <b_lp_Chiralities_Consistent>
1

> <s_lp_Variant>
sdf/inactives_sanitized.sdf:150-1

$$$$
sdf/inactives_sanitized.sdf:151
                    3D
 Schrodinger Suite 2020-1.
 73 74  0  0  1  0            999 V2000
   -1.7818    2.9190   -0.7817 C   0  0  0  0  0  0
    0.1190   -0.1633   -0.5299 C   0  0  0  0  0  0
   -0.3560    1.0790   -0.3331 N   0  0  0  0  0  0
   -1.4615    3.2062   -2.3125 C   0  0  0  0  0  0
    2.0958   -2.6944   -1.1863 C   0  0  0  0  0  0
    1.6544   -0.3240   -0.3958 C   0  0  2  0  0  0
   -1.7747    1.4496   -0.3634 C   0  0  1  0  0  0
    2.2312   -1.3144   -1.3323 N   0  0  0  0  0  0
   -4.0093    4.7387   -4.6523 N   0  0  0  0  0  0
   -2.0724    3.8463   -0.0191 O   0  0  0  0  0  0
   -0.5982   -1.1348   -0.7736 O   0  0  0  0  0  0
    1.5626   -3.2933   -0.2491 O   0  0  0  0  0  0
   -1.0332    2.3257   -3.0608 O   0  0  0  0  0  0
    2.6333   -3.2922   -2.2672 O   0  0  0  0  0  0
    2.1239   -0.5644    1.0749 C   0  0  0  0  0  0
   -1.7229    4.4796   -2.6623 N   0  0  0  0  0  0
   -6.6625    5.6218   -5.2361 O   0  0  0  0  0  0
    2.5874   -4.7061   -2.4173 C   0  0  0  0  0  0
   -1.5746    5.0247   -4.0123 C   0  0  0  0  0  0
    3.1663   -5.0931   -3.7661 C   0  0  0  0  0  0
   -2.6124    4.4888   -5.0299 C   0  0  0  0  0  0
   -4.3644    6.1659   -4.6426 C   0  0  0  0  0  0
   -4.9174    3.9508   -5.4961 C   0  0  0  0  0  0
   -2.4748    1.1839    0.9984 C   0  0  0  0  0  0
    1.9243    0.6163    2.0586 C   0  0  0  0  0  0
   -5.8624    6.3774   -4.3340 C   0  0  0  0  0  0
   -6.3967    4.2265   -5.1534 C   0  0  0  0  0  0
    2.4342   -4.8503   -4.9313 C   0  0  0  0  0  0
    4.4255   -5.6935   -3.8388 C   0  0  0  0  0  0
    2.6528    1.9004    1.6075 C   0  0  0  0  0  0
    2.3065    0.2064    3.4973 C   0  0  0  0  0  0
   -3.9995    1.3922    0.9874 C   0  0  0  0  0  0
    2.9632   -5.2054   -6.1695 C   0  0  0  0  0  0
    4.9535   -6.0488   -5.0774 C   0  0  0  0  0  0
    4.2206   -5.8026   -6.2368 C   0  0  0  0  0  0
    0.2905    1.8268   -0.1271 H   0  0  0  0  0  0
    2.1182    0.6026   -0.7360 H   0  0  0  0  0  0
   -2.2974    0.8670   -1.1267 H   0  0  0  0  0  0
    2.5189   -0.9693   -2.2363 H   0  0  0  0  0  0
    1.6110   -1.4361    1.4836 H   0  0  0  0  0  0
    3.1857   -0.8174    1.0741 H   0  0  0  0  0  0
   -2.0756    5.1111   -1.9575 H   0  0  0  0  0  0
    3.1471   -5.1905   -1.6153 H   0  0  0  0  0  0
    1.5595   -5.0680   -2.3541 H   0  0  0  0  0  0
   -1.6539    6.1076   -3.9238 H   0  0  0  0  0  0
   -0.5643    4.8306   -4.3771 H   0  0  0  0  0  0
   -2.4523    3.4160   -5.1505 H   0  0  0  0  0  0
   -2.4230    4.9338   -6.0083 H   0  0  0  0  0  0
   -3.7631    6.6986   -3.9067 H   0  0  0  0  0  0
   -4.1212    6.6086   -5.6100 H   0  0  0  0  0  0
   -4.7317    4.1758   -6.5481 H   0  0  0  0  0  0
   -4.6987    2.8890   -5.3720 H   0  0  0  0  0  0
   -2.2816    0.1522    1.2971 H   0  0  0  0  0  0
   -2.0211    1.7897    1.7854 H   0  0  0  0  0  0
    0.8586    0.8437    2.0910 H   0  0  0  0  0  0
   -6.0906    6.1054   -3.3018 H   0  0  0  0  0  0
   -6.1190    7.4314   -4.4402 H   0  0  0  0  0  0
   -6.6470    3.8465   -4.1609 H   0  0  0  0  0  0
   -7.0449    3.7053   -5.8580 H   0  0  0  0  0  0
    1.4598   -4.3860   -4.8777 H   0  0  0  0  0  0
    4.9948   -5.8840   -2.9405 H   0  0  0  0  0  0
    3.4241    1.6928    0.8654 H   0  0  0  0  0  0
    3.1378    2.4207    2.4335 H   0  0  0  0  0  0
    1.9492    2.6041    1.1612 H   0  0  0  0  0  0
    3.1838    0.7365    3.8679 H   0  0  0  0  0  0
    2.5292   -0.8582    3.5748 H   0  0  0  0  0  0
    1.4879    0.4121    4.1877 H   0  0  0  0  0  0
   -4.4300    1.1476    1.9589 H   0  0  0  0  0  0
   -4.4787    0.7536    0.2445 H   0  0  0  0  0  0
   -4.2671    2.4248    0.7628 H   0  0  0  0  0  0
    2.4016   -5.0183   -7.0730 H   0  0  0  0  0  0
    5.9269   -6.5129   -5.1393 H   0  0  0  0  0  0
    4.6310   -6.0779   -7.1972 H   0  0  0  0  0  0
  1  4  1  0  0  0
  1  7  1  0  0  0
  1 10  2  0  0  0
  2  3  1  0  0  0
  2  6  1  0  0  0
  2 11  2  0  0  0
  3  7  1  0  0  0
  3 36  1  0  0  0
  4 13  2  0  0  0
  4 16  1  0  0  0
  5  8  1  0  0  0
  5 12  2  0  0  0
  5 14  1  0  0  0
  6  8  1  0  0  0
  6 15  1  0  0  0
  6 37  1  0  0  0
  7 24  1  0  0  0
  7 38  1  0  0  0
  8 39  1  0  0  0
  9 21  1  0  0  0
  9 22  1  0  0  0
  9 23  1  0  0  0
 14 18  1  0  0  0
 15 25  1  0  0  0
 15 40  1  0  0  0
 15 41  1  0  0  0
 16 19  1  0  0  0
 16 42  1  0  0  0
 17 27  1  0  0  0
 17 26  1  0  0  0
 18 20  1  0  0  0
 18 43  1  0  0  0
 18 44  1  0  0  0
 19 21  1  0  0  0
 19 45  1  0  0  0
 19 46  1  0  0  0
 20 28  2  0  0  0
 20 29  1  0  0  0
 21 47  1  0  0  0
 21 48  1  0  0  0
 22 26  1  0  0  0
 22 49  1  0  0  0
 22 50  1  0  0  0
 23 27  1  0  0  0
 23 51  1  0  0  0
 23 52  1  0  0  0
 24 32  1  0  0  0
 24 53  1  0  0  0
 24 54  1  0  0  0
 25 30  1  0  0  0
 25 31  1  0  0  0
 25 55  1  0  0  0
 26 56  1  0  0  0
 26 57  1  0  0  0
 27 58  1  0  0  0
 27 59  1  0  0  0
 28 33  1  0  0  0
 28 60  1  0  0  0
 29 34  2  0  0  0
 29 61  1  0  0  0
 30 62  1  0  0  0
 30 63  1  0  0  0
 30 64  1  0  0  0
 31 65  1  0  0  0
 31 66  1  0  0  0
 31 67  1  0  0  0
 32 68  1  0  0  0
 32 69  1  0  0  0
 32 70  1  0  0  0
 33 35  2  0  0  0
 33 71  1  0  0  0
 34 35  1  0  0  0
 34 72  1  0  0  0
 35 73  1  0  0  0
M  END
> <chembl_id>
CHEMBL130107

> <chembl_pref_name>
None

> <s_m_source_file>
sdf/inactives_sanitized.sdf

> <i_m_source_file_index>
151

> <i_lp_mmshare_version>
49012

> <i_m_ct_stereo_status>
1

> <i_f3d_flags>
0

> <s_epik_input>
W0NIMl0xW0NIMl1PW0NIMl1bQ0gyXU4xW0NIMl1bQ0gyXVtOSF1DKD1PKUMoPU8pW0NASF0oW0NIMl1bQ0gzXSlbTkhdQyg9TylbQ0BASF0oW0NIMl1bQ0hdKFtDSDNdKVtDSDNdKVtOSF1DKD1PKU9bQ0gyXWMyW2NIXVtjSF1bY0hdW2NIXVtjSF0y

> <s_epik_cmdline>
J2VwaWtfcHl0aG9uJywgJy1waHQnLCAnMC41JywgJy1waCcsICc3LjUnLCAnLW50JywgJy1tYScsICcyMDAnLCAnLWltYWUnLCAnPGluZmlsZS5tYWU+JywgJy1vbWFlJywgJzxvdXRmaWxlLm1hZT4n

> <r_lp_tautomer_probability>
0.99990000499975

> <r_epik_Ionization_Penalty>
  0.0569

> <r_epik_Ionization_Penalty_Charging>
  0.0000

> <r_epik_Ionization_Penalty_Neutral>
  0.0569

> <r_epik_State_Penalty>
  0.0491

> <r_epik_Charging_Adjusted_Penalty>
0.0491437539217534

> <i_epik_Tot_Q>
0

> <i_epik_Tot_abs_Q>
0

> <s_epik_Chemistry_Notes>
This compound has an ester and may undergo hydrolysis at high or low pH.

> <s_lp_Force_Field>
OPLS3e

> <r_lp_Energy>
37.325337

> <b_lp_Chiralities_Consistent>
1

> <s_lp_Variant>
sdf/inactives_sanitized.sdf:151-1

$$$$
sdf/inactives_sanitized.sdf:152
                    3D
 Schrodinger Suite 2020-1.
 83 87  0  0  1  0            999 V2000
   -2.7903    2.2841   -0.1988 N   0  0  0  0  0  0
   -2.5041    2.2221   -1.5716 C   0  0  0  0  0  0
   -0.8418    1.2693    1.0092 C   0  0  0  0  0  0
   -2.3646    1.2497    0.7654 C   0  0  1  0  0  0
    2.5755   -0.7050   -7.3998 N   0  0  0  0  0  0
   -0.1554    0.2455    0.4767 N   0  0  0  0  0  0
   -2.9657    3.3280   -2.2195 O   0  0  0  0  0  0
    2.2644   -0.4249   -6.0695 C   0  0  0  0  0  0
   -0.3303    2.2032    1.6273 O   0  0  0  0  0  0
   -1.9018    1.3020   -2.1309 O   0  0  0  0  0  0
    1.3396    0.4302   -2.0450 N   0  0  0  0  0  0
    1.2908    0.5217   -5.7179 C   0  0  0  0  0  0
    2.9418   -1.0977   -5.0436 C   0  0  0  0  0  0
    1.6824    0.1098   -3.3684 C   0  0  0  0  0  0
   -3.5643    3.3430    0.4638 C   0  0  0  0  0  0
   -2.7856    3.5210   -3.6251 C   0  0  0  0  0  0
    1.3079    0.1252    0.4499 C   0  0  2  0  0  0
    1.7810   -0.3974   -0.9246 C   0  0  0  0  0  0
    1.0041    0.7831   -4.3819 C   0  0  0  0  0  0
    2.6569   -0.8362   -3.7057 C   0  0  0  0  0  0
    1.5531   -0.2276    3.0179 C   0  0  0  0  0  0
   -3.1790    1.5819    2.0279 C   0  0  0  0  0  0
   -1.3576    3.8997   -4.0275 C   0  0  0  0  0  0
    1.8557   -0.7544    1.5995 C   0  0  0  0  0  0
    2.1962   -1.0724    4.1076 C   0  0  0  0  0  0
    3.9773   -0.5474   -7.8360 C   0  0  0  0  0  0
    1.6598   -0.3200   -8.4925 C   0  0  0  0  0  0
   -3.4137    3.0833    1.9586 C   0  0  0  0  0  0
    1.4951   -2.1459    4.6638 C   0  0  0  0  0  0
   -0.9992    3.7852   -5.3734 C   0  0  0  0  0  0
    3.4891   -0.7759    4.5478 C   0  0  0  0  0  0
   -0.4175    4.3611   -3.0964 C   0  0  0  0  0  0
    4.3073   -1.3296   -9.1246 C   0  0  0  0  0  0
    1.9134   -1.0875   -9.8073 C   0  0  0  0  0  0
    2.0854   -2.9199    5.6597 C   0  0  0  0  0  0
    4.0790   -1.5505    5.5433 C   0  0  0  0  0  0
    0.2904    4.1109   -5.7858 C   0  0  0  0  0  0
    0.8736    4.6810   -3.5079 C   0  0  0  0  0  0
    3.3744   -2.6186    6.0949 C   0  0  0  0  0  0
    3.3661   -0.9617  -10.2754 C   0  0  0  0  0  0
    1.2225    4.5533   -4.8502 C   0  0  0  0  0  0
   -2.6537    0.2581    0.4099 H   0  0  0  0  0  0
   -0.6669   -0.4614   -0.0317 H   0  0  0  0  0  0
    0.4340    0.8656   -1.9339 H   0  0  0  0  0  0
    0.7483    1.0729   -6.4715 H   0  0  0  0  0  0
    3.6905   -1.8410   -5.2766 H   0  0  0  0  0  0
   -3.2223    4.3456    0.2019 H   0  0  0  0  0  0
   -4.6097    3.2501    0.1654 H   0  0  0  0  0  0
   -3.0928    2.6202   -4.1598 H   0  0  0  0  0  0
   -3.4512    4.3233   -3.9439 H   0  0  0  0  0  0
    1.7567    1.1162    0.5591 H   0  0  0  0  0  0
    1.4176   -1.4139   -1.0844 H   0  0  0  0  0  0
    2.8689   -0.4732   -0.9456 H   0  0  0  0  0  0
    0.2474    1.5138   -4.1379 H   0  0  0  0  0  0
    3.2004   -1.3787   -2.9471 H   0  0  0  0  0  0
    1.8969    0.8033    3.1172 H   0  0  0  0  0  0
    0.4769   -0.1904    3.1926 H   0  0  0  0  0  0
   -4.1372    1.0624    1.9815 H   0  0  0  0  0  0
   -2.6928    1.2785    2.9563 H   0  0  0  0  0  0
    2.9378   -0.8421    1.4875 H   0  0  0  0  0  0
    1.4574   -1.7661    1.5039 H   0  0  0  0  0  0
    4.1859    0.5157   -7.9675 H   0  0  0  0  0  0
    4.6544   -0.8994   -7.0578 H   0  0  0  0  0  0
    0.6372   -0.5355   -8.1792 H   0  0  0  0  0  0
    1.7238    0.7573   -8.6556 H   0  0  0  0  0  0
   -2.5334    3.6078    2.3324 H   0  0  0  0  0  0
   -4.2716    3.4163    2.5432 H   0  0  0  0  0  0
    0.4962   -2.3809    4.3258 H   0  0  0  0  0  0
   -1.7175    3.4365   -6.1012 H   0  0  0  0  0  0
    4.0369    0.0514    4.1199 H   0  0  0  0  0  0
   -0.6749    4.4691   -2.0530 H   0  0  0  0  0  0
    5.3360   -1.1186   -9.4188 H   0  0  0  0  0  0
    4.2821   -2.4014   -8.9221 H   0  0  0  0  0  0
    1.6245   -2.1328   -9.6876 H   0  0  0  0  0  0
    1.2528   -0.6967  -10.5819 H   0  0  0  0  0  0
    1.5465   -3.7498    6.0926 H   0  0  0  0  0  0
    5.0779   -1.3240    5.8858 H   0  0  0  0  0  0
    0.5684    4.0156   -6.8250 H   0  0  0  0  0  0
    1.6014    5.0271   -2.7889 H   0  0  0  0  0  0
    3.8322   -3.2190    6.8674 H   0  0  0  0  0  0
    3.5470   -1.6032  -11.1386 H   0  0  0  0  0  0
    3.5619    0.0619  -10.5987 H   0  0  0  0  0  0
    2.2246    4.8009   -5.1682 H   0  0  0  0  0  0
  1  2  1  0  0  0
  1  4  1  0  0  0
  1 15  1  0  0  0
  2  7  1  0  0  0
  2 10  2  0  0  0
  3  4  1  0  0  0
  3  6  1  0  0  0
  3  9  2  0  0  0
  4 22  1  0  0  0
  4 42  1  0  0  0
  5  8  1  0  0  0
  5 26  1  0  0  0
  5 27  1  0  0  0
  6 17  1  0  0  0
  6 43  1  0  0  0
  7 16  1  0  0  0
  8 13  2  0  0  0
  8 12  1  0  0  0
 11 18  1  0  0  0
 11 14  1  0  0  0
 11 44  1  0  0  0
 12 19  2  0  0  0
 12 45  1  0  0  0
 13 20  1  0  0  0
 13 46  1  0  0  0
 14 19  1  0  0  0
 14 20  2  0  0  0
 15 28  1  0  0  0
 15 47  1  0  0  0
 15 48  1  0  0  0
 16 23  1  0  0  0
 16 49  1  0  0  0
 16 50  1  0  0  0
 17 18  1  0  0  0
 17 24  1  0  0  0
 17 51  1  0  0  0
 18 52  1  0  0  0
 18 53  1  0  0  0
 19 54  1  0  0  0
 20 55  1  0  0  0
 21 24  1  0  0  0
 21 25  1  0  0  0
 21 56  1  0  0  0
 21 57  1  0  0  0
 22 28  1  0  0  0
 22 58  1  0  0  0
 22 59  1  0  0  0
 23 30  2  0  0  0
 23 32  1  0  0  0
 24 60  1  0  0  0
 24 61  1  0  0  0
 25 29  2  0  0  0
 25 31  1  0  0  0
 26 33  1  0  0  0
 26 62  1  0  0  0
 26 63  1  0  0  0
 27 34  1  0  0  0
 27 64  1  0  0  0
 27 65  1  0  0  0
 28 66  1  0  0  0
 28 67  1  0  0  0
 29 35  1  0  0  0
 29 68  1  0  0  0
 30 37  1  0  0  0
 30 69  1  0  0  0
 31 36  2  0  0  0
 31 70  1  0  0  0
 32 38  2  0  0  0
 32 71  1  0  0  0
 33 40  1  0  0  0
 33 72  1  0  0  0
 33 73  1  0  0  0
 34 40  1  0  0  0
 34 74  1  0  0  0
 34 75  1  0  0  0
 35 39  2  0  0  0
 35 76  1  0  0  0
 36 39  1  0  0  0
 36 77  1  0  0  0
 37 41  2  0  0  0
 37 78  1  0  0  0
 38 41  1  0  0  0
 38 79  1  0  0  0
 39 80  1  0  0  0
 40 81  1  0  0  0
 40 82  1  0  0  0
 41 83  1  0  0  0
M  END
> <chembl_id>
CHEMBL170962

> <chembl_pref_name>
None

> <i_m_ct_stereo_status>
1

> <s_m_source_file>
sdf/inactives_sanitized.sdf

> <i_m_source_file_index>
152

> <i_lp_mmshare_version>
49012

> <i_f3d_flags>
0

> <s_epik_input>
W2NIXTFbY0hdW2NIXVtjSF1bY0hdYzFbQ0gyXU9DKD1PKU4yW0NASF0oW0NIMl1bQ0gyXVtDSDJdMilDKD1PKVtOSF1bQ0BASF0oW0NIMl1bQ0gyXWMzW2NIXVtjSF1bY0hdW2NIXVtjSF0zKVtDSDJdW05IXWMoW2NIXVtjSF00KVtjSF1bY0hdYzRONVtDSDJdW0NIMl1bQ0gyXVtDSDJdW0NIMl01

> <s_epik_cmdline>
J2VwaWtfcHl0aG9uJywgJy1waHQnLCAnMC41JywgJy1waCcsICc3LjUnLCAnLW50JywgJy1tYScsICcyMDAnLCAnLWltYWUnLCAnPGluZmlsZS5tYWU+JywgJy1vbWFlJywgJzxvdXRmaWxlLm1hZT4n

> <r_epik_Ionization_Penalty>
  0.0540

> <r_epik_Ionization_Penalty_Charging>
  0.0000

> <r_epik_Ionization_Penalty_Neutral>
  0.0540

> <r_epik_State_Penalty>
  0.0369

> <r_epik_Charging_Adjusted_Penalty>
0.0369166400537048

> <i_epik_Tot_Q>
0

> <i_epik_Tot_abs_Q>
0

> <s_epik_Chemistry_Notes>
This compound has an ester and may undergo hydrolysis at high or low pH.

> <s_lp_Force_Field>
OPLS3e

> <r_lp_Energy>
49.723635

> <b_lp_Chiralities_Consistent>
1

> <s_lp_Variant>
sdf/inactives_sanitized.sdf:152-1

$$$$
sdf/inactives_sanitized.sdf:153
                    3D
 Schrodinger Suite 2020-1.
 37 39  0  0  1  0            999 V2000
   -1.8049    2.5100   -0.5698 C   0  0  0  0  0  0
   -2.1838    3.7801   -0.1224 C   0  0  0  0  0  0
   -3.5336    4.1251   -0.0474 C   0  0  0  0  0  0
   -4.5115    3.2038   -0.4227 C   0  0  0  0  0  0
   -4.1399    1.9367   -0.8743 C   0  0  0  0  0  0
   -2.7892    1.5912   -0.9492 C   0  0  0  0  0  0
   -0.3342    2.1382   -0.6581 C   0  0  0  0  0  0
    0.2388    1.3847    0.9020 S   0  0  0  0  0  0
    2.0131    1.1386    0.6277 C   0  0  0  0  0  0
    2.5074    1.4949   -0.5162 N   0  5  0  0  0  0
    3.8305    1.3258   -0.7489 C   0  0  0  0  0  0
    4.6299    0.7621    0.3008 N   0  0  0  0  0  0
    4.0315    0.4437    1.4076 C   0  0  0  0  0  0
    2.6541    0.6111    1.6275 N   0  0  0  0  0  0
    4.3275    1.6472   -1.8257 O   0  0  0  0  0  0
    5.0760   -0.2415    2.7109 S   0  0  0  0  0  0
    3.8608   -0.5611    4.0296 C   0  0  0  0  0  0
    4.5317   -1.1569    5.2561 C   0  0  0  0  0  0
    4.9458   -0.3242    6.2996 C   0  0  0  0  0  0
    5.5495   -0.8724    7.4282 C   0  0  0  0  0  0
    5.7352   -2.2509    7.5103 C   0  0  0  0  0  0
    5.3221   -3.0867    6.4749 C   0  0  0  0  0  0
    4.7171   -2.5393    5.3466 C   0  0  0  0  0  0
   -5.3500    0.7978   -1.3402 Cl  0  0  0  0  0  0
   -1.4330    4.4993    0.1717 H   0  0  0  0  0  0
   -3.8217    5.1057    0.3016 H   0  0  0  0  0  0
   -5.5554    3.4745   -0.3623 H   0  0  0  0  0  0
   -2.5059    0.6083   -1.2971 H   0  0  0  0  0  0
   -0.1788    1.4436   -1.4853 H   0  0  0  0  0  0
    0.2504    3.0319   -0.8826 H   0  0  0  0  0  0
    3.3511    0.3647    4.3015 H   0  0  0  0  0  0
    3.0936   -1.2474    3.6673 H   0  0  0  0  0  0
    4.8018    0.7447    6.2364 H   0  0  0  0  0  0
    5.8715   -0.2319    8.2360 H   0  0  0  0  0  0
    6.2038   -2.6758    8.3856 H   0  0  0  0  0  0
    5.4699   -4.1541    6.5473 H   0  0  0  0  0  0
    4.3971   -3.1874    4.5433 H   0  0  0  0  0  0
  1  6  1  0  0  0
  1  2  2  0  0  0
  1  7  1  0  0  0
  2  3  1  0  0  0
  2 25  1  0  0  0
  3  4  2  0  0  0
  3 26  1  0  0  0
  4  5  1  0  0  0
  4 27  1  0  0  0
  5  6  2  0  0  0
  5 24  1  0  0  0
  6 28  1  0  0  0
  7  8  1  0  0  0
  7 29  1  0  0  0
  7 30  1  0  0  0
  8  9  1  0  0  0
  9 14  2  0  0  0
  9 10  1  0  0  0
 10 11  1  0  0  0
 11 12  1  0  0  0
 11 15  2  0  0  0
 12 13  2  0  0  0
 13 14  1  0  0  0
 13 16  1  0  0  0
 16 17  1  0  0  0
 17 18  1  0  0  0
 17 31  1  0  0  0
 17 32  1  0  0  0
 18 19  2  0  0  0
 18 23  1  0  0  0
 19 20  1  0  0  0
 19 33  1  0  0  0
 20 21  2  0  0  0
 20 34  1  0  0  0
 21 22  1  0  0  0
 21 35  1  0  0  0
 22 23  2  0  0  0
 22 36  1  0  0  0
 23 37  1  0  0  0
M  CHG  1  10  -1
M  END
> <chembl_id>
CHEMBL1836470

> <chembl_pref_name>
None

> <s_m_source_file>
sdf/inactives_sanitized.sdf

> <i_m_source_file_index>
153

> <i_lp_mmshare_version>
49012

> <i_m_ct_stereo_status>
1

> <i_f3d_flags>
0

> <s_epik_input>
W2NIXTFjKENsKVtjSF1bY0hdW2NIXWMxW0NIMl1TYzJbbkhdYyg9TyluYyhuMilTW0NIMl1jM1tjSF1bY0hdW2NIXVtjSF1bY0hdMw==

> <s_epik_cmdline>
J2VwaWtfcHl0aG9uJywgJy1waHQnLCAnMC41JywgJy1waCcsICc3LjUnLCAnLW50JywgJy1tYScsICcyMDAnLCAnLWltYWUnLCAnPGluZmlsZS5tYWU+JywgJy1vbWFlJywgJzxvdXRmaWxlLm1hZT4n

> <r_lp_tautomer_probability>
1

> <r_epik_Ionization_Penalty>
  0.3245

> <r_epik_Ionization_Penalty_Charging>
  0.0003

> <r_epik_Ionization_Penalty_Neutral>
  0.3241

> <r_epik_State_Penalty>
 -0.0000

> <r_epik_Charging_Adjusted_Penalty>
0.000330722952361958

> <i_epik_Tot_Q>
-1

> <i_epik_Tot_abs_Q>
1

> <s_lp_Force_Field>
OPLS3e

> <r_lp_Energy>
38.690692

> <b_lp_Chiralities_Consistent>
1

> <s_lp_Variant>
sdf/inactives_sanitized.sdf:153-1

$$$$
sdf/inactives_sanitized.sdf:154
                    3D
 Schrodinger Suite 2020-1.
 31 32  0  0  1  0            999 V2000
   -1.3650    1.8423   -0.4511 C   0  0  0  0  0  0
   -1.0046    0.3510   -0.4033 C   0  0  0  0  0  0
   -0.0895   -0.1854    1.0785 S   0  0  0  0  0  0
    1.5646    0.4575    0.7539 C   0  0  0  0  0  0
    1.9223    1.0460   -0.4453 N   0  0  0  0  0  0
    3.1924    1.4965   -0.7074 C   0  0  0  0  0  0
    4.1196    1.4127    0.3604 N   0  0  0  0  0  0
    3.7145    0.8900    1.4749 C   0  0  0  0  0  0
    2.4625    0.2938    1.6778 N   0  0  0  0  0  0
    3.3738    1.9359   -1.8402 O   0  0  0  0  0  0
    4.7916    0.9401    2.9255 S   0  0  0  0  0  0
    6.2749    1.7800    2.2795 C   0  0  0  0  0  0
    7.3343    1.9173    3.3605 C   0  0  0  0  0  0
    8.2876    0.9101    3.5352 C   0  0  0  0  0  0
    9.2633    1.0402    4.5202 C   0  0  0  0  0  0
    9.2845    2.1778    5.3243 C   0  0  0  0  0  0
    8.3399    3.1875    5.1523 C   0  0  0  0  0  0
    7.3640    3.0582    4.1675 C   0  0  0  0  0  0
   -1.9195    2.0787   -1.3597 H   0  0  0  0  0  0
   -0.4774    2.4743   -0.4341 H   0  0  0  0  0  0
   -1.9886    2.1215    0.3987 H   0  0  0  0  0  0
   -0.4535    0.0616   -1.2986 H   0  0  0  0  0  0
   -1.9246   -0.2332   -0.4357 H   0  0  0  0  0  0
    1.2442    1.1221   -1.1886 H   0  0  0  0  0  0
    6.6843    1.2202    1.4368 H   0  0  0  0  0  0
    6.0091    2.7683    1.9008 H   0  0  0  0  0  0
    8.2714    0.0274    2.9124 H   0  0  0  0  0  0
   10.0003    0.2631    4.6600 H   0  0  0  0  0  0
   10.0414    2.2782    6.0881 H   0  0  0  0  0  0
    8.3645    4.0662    5.7799 H   0  0  0  0  0  0
    6.6318    3.8416    4.0350 H   0  0  0  0  0  0
  1  2  1  0  0  0
  1 19  1  0  0  0
  1 20  1  0  0  0
  1 21  1  0  0  0
  2  3  1  0  0  0
  2 22  1  0  0  0
  2 23  1  0  0  0
  3  4  1  0  0  0
  4  9  2  0  0  0
  4  5  1  0  0  0
  5  6  1  0  0  0
  5 24  1  0  0  0
  6 10  2  0  0  0
  6  7  1  0  0  0
  7  8  2  0  0  0
  8 11  1  0  0  0
  8  9  1  0  0  0
 11 12  1  0  0  0
 12 13  1  0  0  0
 12 25  1  0  0  0
 12 26  1  0  0  0
 13 14  2  0  0  0
 13 18  1  0  0  0
 14 15  1  0  0  0
 14 27  1  0  0  0
 15 16  2  0  0  0
 15 28  1  0  0  0
 16 17  1  0  0  0
 16 29  1  0  0  0
 17 18  2  0  0  0
 17 30  1  0  0  0
 18 31  1  0  0  0
M  END
> <chembl_id>
CHEMBL1836511

> <chembl_pref_name>
None

> <s_m_source_file>
sdf/inactives_sanitized.sdf

> <i_m_source_file_index>
154

> <i_lp_mmshare_version>
49012

> <i_m_ct_stereo_status>
1

> <i_f3d_flags>
0

> <s_epik_input>
W0NIM11bQ0gyXVNjMVtuSF1jKD1PKW5jKG4xKVNbQ0gyXWMyW2NIXVtjSF1bY0hdW2NIXVtjSF0y

> <s_epik_cmdline>
J2VwaWtfcHl0aG9uJywgJy1waHQnLCAnMC41JywgJy1waCcsICc3LjUnLCAnLW50JywgJy1tYScsICcyMDAnLCAnLWltYWUnLCAnPGluZmlsZS5tYWU+JywgJy1vbWFlJywgJzxvdXRmaWxlLm1hZT4n

> <r_lp_tautomer_probability>
1

> <r_epik_Ionization_Penalty>
  0.0847

> <r_epik_Ionization_Penalty_Charging>
  0.0560

> <r_epik_Ionization_Penalty_Neutral>
  0.0288

> <r_epik_State_Penalty>
 -0.0000

> <r_epik_Charging_Adjusted_Penalty>
0.0559672011475136

> <i_epik_Tot_Q>
0

> <i_epik_Tot_abs_Q>
0

> <s_lp_Force_Field>
OPLS3e

> <r_lp_Energy>
31.027019

> <b_lp_Chiralities_Consistent>
1

> <s_lp_Variant>
sdf/inactives_sanitized.sdf:154-1

$$$$
sdf/inactives_sanitized.sdf:155
                    3D
 Schrodinger Suite 2020-1.
 48 50  0  0  1  0            999 V2000
    3.8504   -0.0326   -0.7185 C   0  0  0  0  0  0
    2.3587    0.0530   -1.0684 C   0  0  0  0  0  0
    2.0073    0.1946   -2.2395 O   0  0  0  0  0  0
   -2.2741    2.9346   -0.8461 O   0  0  0  0  0  0
   -3.5374    2.7792   -1.3159 C   0  0  0  0  0  0
   -3.8519    1.5223   -1.5135 N   0  0  0  0  0  0
   -2.7263    0.7854   -1.1559 N   0  0  0  0  0  0
   -1.8220    1.6550   -0.7671 C   0  0  0  0  0  0
   -0.4585    1.4276   -0.2940 C   0  0  0  0  0  0
    0.2660    2.3907   -0.0267 O   0  0  0  0  0  0
    0.0218   -0.0222   -0.1419 C   0  0  1  0  0  0
    1.4920   -0.0548   -0.0441 N   0  0  0  0  0  0
   -0.6360   -0.6845    1.0979 C   0  0  0  0  0  0
   -0.2176   -2.1554    1.3059 C   0  0  0  0  0  0
   -0.9288   -2.8215    2.4908 C   0  0  0  0  0  0
   -4.3541    3.9540   -1.5350 C   0  0  0  0  0  0
   -4.1304    5.3148   -1.3687 C   0  0  0  0  0  0
   -5.3022    5.9717   -1.7468 C   0  0  0  0  0  0
   -6.1932    4.9839   -2.1285 C   0  0  0  0  0  0
   -5.6182    3.7608   -2.0006 O   0  0  0  0  0  0
    4.4724   -1.4176   -1.0139 C   0  0  0  0  0  0
    3.8364   -2.5705   -0.2416 C   0  0  0  0  0  0
    2.9416   -3.4341   -0.8807 C   0  0  0  0  0  0
    2.3509   -4.4743   -0.1680 C   0  0  0  0  0  0
    2.6565   -4.6478    1.1803 C   0  0  0  0  0  0
    3.5472   -3.7907    1.8231 C   0  0  0  0  0  0
    4.1386   -2.7506    1.1110 C   0  0  0  0  0  0
    4.3825    0.7391   -1.2766 H   0  0  0  0  0  0
    3.9932    0.2124    0.3357 H   0  0  0  0  0  0
   -0.2792   -0.6010   -1.0186 H   0  0  0  0  0  0
    1.8583   -0.1630    0.8905 H   0  0  0  0  0  0
   -1.7232   -0.6460    1.0107 H   0  0  0  0  0  0
   -0.3761   -0.1214    1.9969 H   0  0  0  0  0  0
   -0.4246   -2.7280    0.4006 H   0  0  0  0  0  0
    0.8588   -2.2156    1.4696 H   0  0  0  0  0  0
   -0.6011   -3.8548    2.6085 H   0  0  0  0  0  0
   -2.0100   -2.8316    2.3494 H   0  0  0  0  0  0
   -0.7168   -2.2992    3.4244 H   0  0  0  0  0  0
   -3.2209    5.7766   -1.0135 H   0  0  0  0  0  0
   -5.4791    7.0372   -1.7422 H   0  0  0  0  0  0
   -7.2107    4.9988   -2.4906 H   0  0  0  0  0  0
    4.4459   -1.6227   -2.0859 H   0  0  0  0  0  0
    5.5348   -1.3914   -0.7672 H   0  0  0  0  0  0
    2.6980   -3.2963   -1.9242 H   0  0  0  0  0  0
    1.6567   -5.1417   -0.6570 H   0  0  0  0  0  0
    2.1964   -5.4532    1.7336 H   0  0  0  0  0  0
    3.7766   -3.9312    2.8691 H   0  0  0  0  0  0
    4.8259   -2.0832    1.6105 H   0  0  0  0  0  0
  1  2  1  0  0  0
  1 21  1  0  0  0
  1 28  1  0  0  0
  1 29  1  0  0  0
  2 12  1  0  0  0
  2  3  2  0  0  0
  4  5  1  0  0  0
  4  8  1  0  0  0
  5  6  2  0  0  0
  5 16  1  0  0  0
  6  7  1  0  0  0
  7  8  2  0  0  0
  8  9  1  0  0  0
  9 10  2  0  0  0
  9 11  1  0  0  0
 11 12  1  0  0  0
 11 13  1  0  0  0
 11 30  1  0  0  0
 12 31  1  0  0  0
 13 14  1  0  0  0
 13 32  1  0  0  0
 13 33  1  0  0  0
 14 15  1  0  0  0
 14 34  1  0  0  0
 14 35  1  0  0  0
 15 36  1  0  0  0
 15 37  1  0  0  0
 15 38  1  0  0  0
 16 17  2  0  0  0
 16 20  1  0  0  0
 17 18  1  0  0  0
 17 39  1  0  0  0
 18 19  2  0  0  0
 18 40  1  0  0  0
 19 20  1  0  0  0
 19 41  1  0  0  0
 21 22  1  0  0  0
 21 42  1  0  0  0
 21 43  1  0  0  0
 22 23  2  0  0  0
 22 27  1  0  0  0
 23 24  1  0  0  0
 23 44  1  0  0  0
 24 25  2  0  0  0
 24 45  1  0  0  0
 25 26  1  0  0  0
 25 46  1  0  0  0
 26 27  2  0  0  0
 26 47  1  0  0  0
 27 48  1  0  0  0
M  END
> <chembl_id>
CHEMBL210712

> <chembl_pref_name>
None

> <i_m_ct_stereo_status>
1

> <s_m_source_file>
sdf/inactives_sanitized.sdf

> <i_m_source_file_index>
155

> <i_lp_mmshare_version>
49012

> <i_f3d_flags>
0

> <s_epik_input>
W2NIXTFbY0hdW2NIXVtjSF1bY0hdYzFbQ0gyXVtDSDJdQyg9TylbTkhdW0NAQEhdKFtDSDJdW0NIMl1bQ0gzXSlDKD1PKWMobm4yKW9jMi1jM1tjSF1bY0hdW2NIXW8z

> <s_epik_cmdline>
J2VwaWtfcHl0aG9uJywgJy1waHQnLCAnMC41JywgJy1waCcsICc3LjUnLCAnLW50JywgJy1tYScsICcyMDAnLCAnLWltYWUnLCAnPGluZmlsZS5tYWU+JywgJy1vbWFlJywgJzxvdXRmaWxlLm1hZT4n

> <r_lp_tautomer_probability>
1

> <r_epik_Ionization_Penalty>
  0.0000

> <r_epik_Ionization_Penalty_Charging>
  0.0000

> <r_epik_Ionization_Penalty_Neutral>
  0.0000

> <r_epik_State_Penalty>
 -0.0000

> <r_epik_Charging_Adjusted_Penalty>
0

> <i_epik_Tot_Q>
0

> <i_epik_Tot_abs_Q>
0

> <s_lp_Force_Field>
OPLS3e

> <r_lp_Energy>
24.128562

> <b_lp_Chiralities_Consistent>
1

> <s_lp_Variant>
sdf/inactives_sanitized.sdf:155-1

$$$$
sdf/inactives_sanitized.sdf:156
                    3D
 Schrodinger Suite 2020-1.
 72 75  0  0  1  0            999 V2000
    1.0516    2.1424   -8.2967 C   0  0  0  0  0  0
    1.7744    3.2168   -7.9776 F   0  0  0  0  0  0
    1.6752    1.5034   -9.2887 F   0  0  0  0  0  0
   -0.1388    2.5428   -8.7434 F   0  0  0  0  0  0
    0.8590    1.2594   -7.0651 C   0  0  0  0  0  0
    3.3705   -0.4975   -0.3119 C   0  0  0  0  0  0
    3.5143    0.9515   -0.9007 C   0  0  0  0  0  0
    4.9797    1.4382   -0.9148 C   0  0  0  0  0  0
    5.5970    1.4033    0.4973 C   0  0  0  0  0  0
    5.4206    0.0311    1.1769 C   0  0  0  0  0  0
    3.9465   -0.4311    1.1389 C   0  0  0  0  0  0
    1.8557   -0.8618   -0.1022 C   0  0  0  0  0  0
    1.4931   -2.0401   -0.1344 O   0  0  0  0  0  0
   -0.3988    0.9014   -2.3502 O   0  0  0  0  0  0
   -0.3976    1.6361   -3.4921 C   0  0  0  0  0  0
   -0.8850    2.8402   -3.3075 N   0  0  0  0  0  0
   -1.2344    2.9168   -1.9620 N   0  0  0  0  0  0
   -0.9242    1.7560   -1.4339 C   0  0  0  0  0  0
   -1.0526    1.3123   -0.0442 C   0  0  0  0  0  0
   -1.6325    2.0255    0.7773 O   0  0  0  0  0  0
   -0.4651   -0.0411    0.3547 C   0  0  1  0  0  0
    0.9797    0.1274    0.1619 N   0  0  0  0  0  0
   -0.8281   -0.5109    1.7920 C   0  0  0  0  0  0
   -2.3047   -0.9169    1.9811 C   0  0  0  0  0  0
   -2.6019   -1.4272    3.3976 C   0  0  0  0  0  0
    4.0917   -1.5207   -1.1055 N   0  0  0  0  0  0
    3.8351   -1.9349   -2.3665 C   0  0  0  0  0  0
    4.7895   -2.9555   -2.9543 C   0  0  0  0  0  0
    2.8727   -1.5256   -3.0180 O   0  0  0  0  0  0
    5.9201   -3.4015   -2.2512 C   0  0  0  0  0  0
    6.7784   -4.3413   -2.8145 C   0  0  0  0  0  0
    6.5340   -4.8583   -4.0857 C   0  0  0  0  0  0
    5.4074   -4.4163   -4.7941 C   0  0  0  0  0  0
    4.5477   -3.4758   -4.2332 C   0  0  0  0  0  0
    7.4450   -5.7873   -4.5551 O   0  0  0  0  0  0
    7.2800   -6.3832   -5.8419 C   0  0  0  0  0  0
    8.2925   -7.2302   -6.0191 F   0  0  0  0  0  0
    6.1488   -7.0871   -5.9186 F   0  0  0  0  0  0
    7.3401   -5.4750   -6.8177 F   0  0  0  0  0  0
    0.1478    1.0332   -4.7440 C   0  0  0  0  0  0
    0.4925   -0.3223   -4.7842 C   0  0  0  0  0  0
    1.0192   -0.8846   -5.9453 C   0  0  0  0  0  0
    1.2025   -0.0983   -7.0814 C   0  0  0  0  0  0
    0.3315    1.8138   -5.8921 C   0  0  0  0  0  0
    3.1865    0.9451   -1.9417 H   0  0  0  0  0  0
    2.8752    1.6877   -0.4111 H   0  0  0  0  0  0
    5.5713    0.8163   -1.5885 H   0  0  0  0  0  0
    5.0314    2.4514   -1.3155 H   0  0  0  0  0  0
    6.6556    1.6616    0.4478 H   0  0  0  0  0  0
    5.1259    2.1710    1.1131 H   0  0  0  0  0  0
    6.0558   -0.7055    0.6826 H   0  0  0  0  0  0
    5.7674    0.0836    2.2097 H   0  0  0  0  0  0
    3.3258    0.1623    1.8151 H   0  0  0  0  0  0
    3.9383   -1.4353    1.5693 H   0  0  0  0  0  0
   -0.8309   -0.7852   -0.3572 H   0  0  0  0  0  0
    1.3170    1.0783    0.2048 H   0  0  0  0  0  0
   -0.2076   -1.3739    2.0396 H   0  0  0  0  0  0
   -0.5485    0.2542    2.5190 H   0  0  0  0  0  0
   -2.9607   -0.0725    1.7691 H   0  0  0  0  0  0
   -2.5638   -1.6959    1.2626 H   0  0  0  0  0  0
   -3.6522   -1.7015    3.5004 H   0  0  0  0  0  0
   -2.3842   -0.6647    4.1462 H   0  0  0  0  0  0
   -2.0056   -2.3091    3.6347 H   0  0  0  0  0  0
    5.0294   -1.7050   -0.7810 H   0  0  0  0  0  0
    6.1524   -3.0312   -1.2631 H   0  0  0  0  0  0
    7.6424   -4.6722   -2.2565 H   0  0  0  0  0  0
    5.1789   -4.7894   -5.7806 H   0  0  0  0  0  0
    3.6888   -3.1591   -4.8086 H   0  0  0  0  0  0
    0.3592   -0.9493   -3.9142 H   0  0  0  0  0  0
    1.2878   -1.9307   -5.9625 H   0  0  0  0  0  0
    1.6122   -0.5540   -7.9710 H   0  0  0  0  0  0
    0.0678    2.8622   -5.8758 H   0  0  0  0  0  0
  1  5  1  0  0  0
  1  2  1  0  0  0
  1  3  1  0  0  0
  1  4  1  0  0  0
  5 43  2  0  0  0
  5 44  1  0  0  0
  6  7  1  0  0  0
  6 11  1  0  0  0
  6 12  1  0  0  0
  6 26  1  0  0  0
  7  8  1  0  0  0
  7 45  1  0  0  0
  7 46  1  0  0  0
  8  9  1  0  0  0
  8 47  1  0  0  0
  8 48  1  0  0  0
  9 10  1  0  0  0
  9 49  1  0  0  0
  9 50  1  0  0  0
 10 11  1  0  0  0
 10 51  1  0  0  0
 10 52  1  0  0  0
 11 53  1  0  0  0
 11 54  1  0  0  0
 12 13  2  0  0  0
 12 22  1  0  0  0
 14 15  1  0  0  0
 14 18  1  0  0  0
 15 16  2  0  0  0
 15 40  1  0  0  0
 16 17  1  0  0  0
 17 18  2  0  0  0
 18 19  1  0  0  0
 19 20  2  0  0  0
 19 21  1  0  0  0
 21 22  1  0  0  0
 21 23  1  0  0  0
 21 55  1  0  0  0
 22 56  1  0  0  0
 23 24  1  0  0  0
 23 57  1  0  0  0
 23 58  1  0  0  0
 24 25  1  0  0  0
 24 59  1  0  0  0
 24 60  1  0  0  0
 25 61  1  0  0  0
 25 62  1  0  0  0
 25 63  1  0  0  0
 26 27  1  0  0  0
 26 64  1  0  0  0
 27 28  1  0  0  0
 27 29  2  0  0  0
 28 30  2  0  0  0
 28 34  1  0  0  0
 30 31  1  0  0  0
 30 65  1  0  0  0
 31 32  2  0  0  0
 31 66  1  0  0  0
 32 33  1  0  0  0
 32 35  1  0  0  0
 33 34  2  0  0  0
 33 67  1  0  0  0
 34 68  1  0  0  0
 35 36  1  0  0  0
 36 37  1  0  0  0
 36 38  1  0  0  0
 36 39  1  0  0  0
 40 41  1  0  0  0
 40 44  2  0  0  0
 41 42  2  0  0  0
 41 69  1  0  0  0
 42 43  1  0  0  0
 42 70  1  0  0  0
 43 71  1  0  0  0
 44 72  1  0  0  0
M  END
> <chembl_id>
CHEMBL208566

> <chembl_pref_name>
None

> <i_m_ct_stereo_status>
1

> <s_m_source_file>
sdf/inactives_sanitized.sdf

> <i_m_source_file_index>
156

> <i_lp_mmshare_version>
49012

> <i_f3d_flags>
0

> <s_epik_input>
RkMoRikoRiljMVtjSF1bY0hdW2NIXWMoW2NIXTEpLWMyb2Mobm4yKUMoPU8pW0NASF0oW0NIMl1bQ0gyXVtDSDNdKVtOSF1DKD1PKUMzKFtDSDJdW0NIMl1bQ0gyXVtDSDJdW0NIMl0zKVtOSF1DKD1PKWM0W2NIXVtjSF1jKFtjSF1bY0hdNClPQyhGKShGKUY=

> <s_epik_cmdline>
J2VwaWtfcHl0aG9uJywgJy1waHQnLCAnMC41JywgJy1waCcsICc3LjUnLCAnLW50JywgJy1tYScsICcyMDAnLCAnLWltYWUnLCAnPGluZmlsZS5tYWU+JywgJy1vbWFlJywgJzxvdXRmaWxlLm1hZT4n

> <r_lp_tautomer_probability>
1

> <r_epik_Ionization_Penalty>
  0.0000

> <r_epik_Ionization_Penalty_Charging>
  0.0000

> <r_epik_Ionization_Penalty_Neutral>
  0.0000

> <r_epik_State_Penalty>
 -0.0000

> <r_epik_Charging_Adjusted_Penalty>
0

> <i_epik_Tot_Q>
0

> <i_epik_Tot_abs_Q>
0

> <s_lp_Force_Field>
OPLS3e

> <r_lp_Energy>
62.309512

> <b_lp_Chiralities_Consistent>
1

> <s_lp_Variant>
sdf/inactives_sanitized.sdf:156-1

$$$$
sdf/inactives_sanitized.sdf:157
                    3D
 Schrodinger Suite 2020-1.
 46 46  0  0  1  0            999 V2000
   -0.5332    1.3080    0.0643 N   0  0  0  0  0  0
    0.0271   -0.0664    0.0837 C   0  0  1  0  0  0
   -0.4768   -0.8232    1.3616 C   0  0  0  0  0  0
   -0.7627   -0.2062    2.3915 O   0  0  0  0  0  0
   -0.9717   -3.0262    2.4069 C   0  0  0  0  0  0
   -0.0134   -3.0204    3.5263 C   0  0  0  0  0  0
    0.7390   -3.0167    4.4054 N   0  0  0  0  0  0
   -1.8844    1.6451    0.0019 C   0  0  0  0  0  0
   -1.9934    2.9861   -0.0520 O   0  0  0  0  0  0
   -2.8360    0.8603   -0.0027 O   0  0  0  0  0  0
   -3.2728    3.6124   -0.1065 C   0  0  0  0  0  0
   -3.1803    5.1364   -0.0827 C   0  0  0  0  0  0
   -4.3722    5.8656   -0.0627 C   0  0  0  0  0  0
   -4.3434    7.2574   -0.0385 C   0  0  0  0  0  0
   -3.1194    7.9216   -0.0353 C   0  0  0  0  0  0
   -1.9247    7.2061   -0.0567 C   0  0  0  0  0  0
   -1.9532    5.8139   -0.0809 C   0  0  0  0  0  0
   -0.3526   -0.8161   -1.2293 C   0  0  0  0  0  0
    1.5861    0.0663    0.1143 C   0  0  0  0  0  0
   -0.5605   -2.1655    1.3007 N   0  0  0  0  0  0
    2.2488    0.7751    1.3374 C   0  0  0  0  0  0
    3.4224    1.6735    0.9013 C   0  0  0  0  0  0
    2.7227   -0.2193    2.4177 C   0  0  0  0  0  0
    0.1303    2.0635   -0.0230 H   0  0  0  0  0  0
   -1.0606   -4.0501    2.0444 H   0  0  0  0  0  0
   -1.9534   -2.7321    2.7816 H   0  0  0  0  0  0
   -3.8734    3.2877    0.7452 H   0  0  0  0  0  0
   -3.7904    3.3054   -1.0170 H   0  0  0  0  0  0
   -5.3242    5.3543   -0.0644 H   0  0  0  0  0  0
   -5.2660    7.8188   -0.0219 H   0  0  0  0  0  0
   -3.0968    9.0013   -0.0160 H   0  0  0  0  0  0
   -0.9798    7.7292   -0.0543 H   0  0  0  0  0  0
   -1.0175    5.2748   -0.0976 H   0  0  0  0  0  0
    0.1739   -1.7668   -1.3268 H   0  0  0  0  0  0
   -0.1008   -0.2244   -2.1109 H   0  0  0  0  0  0
   -1.4200   -1.0343   -1.2863 H   0  0  0  0  0  0
    2.0464   -0.9140   -0.0262 H   0  0  0  0  0  0
    1.8721    0.6078   -0.7903 H   0  0  0  0  0  0
   -0.2640   -2.6307    0.4554 H   0  0  0  0  0  0
    1.5149    1.4350    1.8022 H   0  0  0  0  0  0
    4.2125    1.0940    0.4220 H   0  0  0  0  0  0
    3.8627    2.1927    1.7536 H   0  0  0  0  0  0
    3.0950    2.4368    0.1945 H   0  0  0  0  0  0
    3.4811   -0.8995    2.0286 H   0  0  0  0  0  0
    1.9071   -0.8269    2.8048 H   0  0  0  0  0  0
    3.1576    0.3039    3.2701 H   0  0  0  0  0  0
  1  2  1  0  0  0
  1  8  1  0  0  0
  1 24  1  0  0  0
  2  3  1  0  0  0
  2 18  1  0  0  0
  2 19  1  0  0  0
  3 20  1  0  0  0
  3  4  2  0  0  0
  5  6  1  0  0  0
  5 20  1  0  0  0
  5 25  1  0  0  0
  5 26  1  0  0  0
  6  7  3  0  0  0
  8  9  1  0  0  0
  8 10  2  0  0  0
  9 11  1  0  0  0
 11 12  1  0  0  0
 11 27  1  0  0  0
 11 28  1  0  0  0
 12 13  2  0  0  0
 12 17  1  0  0  0
 13 14  1  0  0  0
 13 29  1  0  0  0
 14 15  2  0  0  0
 14 30  1  0  0  0
 15 16  1  0  0  0
 15 31  1  0  0  0
 16 17  2  0  0  0
 16 32  1  0  0  0
 17 33  1  0  0  0
 18 34  1  0  0  0
 18 35  1  0  0  0
 18 36  1  0  0  0
 19 21  1  0  0  0
 19 37  1  0  0  0
 19 38  1  0  0  0
 20 39  1  0  0  0
 21 22  1  0  0  0
 21 23  1  0  0  0
 21 40  1  0  0  0
 22 41  1  0  0  0
 22 42  1  0  0  0
 22 43  1  0  0  0
 23 44  1  0  0  0
 23 45  1  0  0  0
 23 46  1  0  0  0
M  END
> <chembl_id>
CHEMBL200545

> <chembl_pref_name>
None

> <i_m_ct_stereo_status>
1

> <s_m_source_file>
sdf/inactives_sanitized.sdf

> <i_m_source_file_index>
157

> <i_lp_mmshare_version>
49012

> <i_f3d_flags>
0

> <s_epik_input>
TiNDW0NIMl1bTkhdQyg9TylbQ0BdKFtDSDNdKShbQ0gyXVtDSF0oW0NIM10pW0NIM10pW05IXUMoPU8pT1tDSDJdYzFbY0hdW2NIXVtjSF1bY0hdW2NIXTE=

> <s_epik_cmdline>
J2VwaWtfcHl0aG9uJywgJy1waHQnLCAnMC41JywgJy1waCcsICc3LjUnLCAnLW50JywgJy1tYScsICcyMDAnLCAnLWltYWUnLCAnPGluZmlsZS5tYWU+JywgJy1vbWFlJywgJzxvdXRmaWxlLm1hZT4n

> <r_lp_tautomer_probability>
1

> <r_epik_Ionization_Penalty>
  0.0000

> <r_epik_Ionization_Penalty_Charging>
  0.0000

> <r_epik_Ionization_Penalty_Neutral>
  0.0000

> <r_epik_State_Penalty>
 -0.0000

> <r_epik_Charging_Adjusted_Penalty>
0

> <i_epik_Tot_Q>
0

> <i_epik_Tot_abs_Q>
0

> <s_epik_Chemistry_Notes>
This compound has an ester and may undergo hydrolysis at high or low pH.

> <s_lp_Force_Field>
OPLS3e

> <r_lp_Energy>
24.311116

> <b_lp_Chiralities_Consistent>
1

> <s_lp_Variant>
sdf/inactives_sanitized.sdf:157-1

$$$$
sdf/inactives_sanitized.sdf:158
                    3D
 Schrodinger Suite 2020-1.
 51 52  0  0  1  0            999 V2000
   -0.8162    0.1777    2.1462 C   0  0  0  0  0  0
   -0.7653   -0.9417    1.1277 C   0  0  0  0  0  0
   -0.0986   -0.3225   -0.1045 C   0  0  1  0  0  0
   -0.6459    1.0673   -0.0534 N   0  0  2  0  0  0
   -1.0566    1.4592    1.3347 C   0  0  0  0  0  0
    1.4457   -0.2660    0.0023 C   0  0  0  0  0  0
    2.1188   -1.1698   -0.7329 N   0  0  0  0  0  0
    2.0100    0.4969    0.7899 O   0  0  0  0  0  0
   -1.6359    1.6214   -1.4074 S   0  0  0  0  0  0
   -1.5097    3.5054   -1.3003 C   0  0  0  0  0  0
   -0.9799    1.1839   -2.6449 O   0  0  0  0  0  0
   -3.0219    1.2251   -1.1340 O   0  0  0  0  0  0
    3.5724   -1.3664   -0.7086 C   0  0  2  0  0  0
    3.9510   -1.4930   -2.1640 C   0  0  0  0  0  0
    3.9380   -2.6570    0.0678 C   0  0  0  0  0  0
    3.6138   -2.6174    1.5527 C   0  0  0  0  0  0
    2.3735   -3.0968    2.0261 C   0  0  0  0  0  0
    2.0374   -2.9529    3.3656 C   0  0  0  0  0  0
    2.9087   -2.3170    4.2408 C   0  0  0  0  0  0
    4.1178   -1.8087    3.7826 C   0  0  0  0  0  0
    4.4712   -1.9408    2.4461 C   0  0  0  0  0  0
    4.9403   -0.9373   -2.6380 O   0  0  0  0  0  0
   -2.3146    4.1558   -2.4360 C   0  0  0  0  0  0
   -2.2477    5.6921   -2.4065 C   0  0  0  0  0  0
   -3.0514    6.3483   -3.5373 C   0  0  0  0  0  0
    0.1327    0.2363    2.6828 H   0  0  0  0  0  0
   -1.5896    0.0126    2.8978 H   0  0  0  0  0  0
   -1.7765   -1.2692    0.8785 H   0  0  0  0  0  0
   -0.2319   -1.8116    1.5131 H   0  0  0  0  0  0
   -0.3675   -0.8403   -1.0272 H   0  0  0  0  0  0
   -0.4033    2.2147    1.7728 H   0  0  0  0  0  0
   -2.1274    1.6543    1.4122 H   0  0  0  0  0  0
    1.5980   -1.8236   -1.2994 H   0  0  0  0  0  0
   -1.8802    3.8042   -0.3197 H   0  0  0  0  0  0
   -0.4519    3.7646   -1.3516 H   0  0  0  0  0  0
    4.1001   -0.5232   -0.2555 H   0  0  0  0  0  0
    3.3172   -2.1460   -2.7658 H   0  0  0  0  0  0
    3.4308   -3.5234   -0.3621 H   0  0  0  0  0  0
    5.0075   -2.8545   -0.0292 H   0  0  0  0  0  0
    1.6793   -3.5710    1.3480 H   0  0  0  0  0  0
    1.0907   -3.3277    3.7259 H   0  0  0  0  0  0
    2.6390   -2.2060    5.2808 H   0  0  0  0  0  0
    4.7807   -1.2992    4.4664 H   0  0  0  0  0  0
    5.4020   -1.5213    2.0934 H   0  0  0  0  0  0
   -1.9416    3.7943   -3.3956 H   0  0  0  0  0  0
   -3.3554    3.8348   -2.3704 H   0  0  0  0  0  0
   -2.6184    6.0567   -1.4474 H   0  0  0  0  0  0
   -1.2078    6.0145   -2.4746 H   0  0  0  0  0  0
   -2.9732    7.4349   -3.4898 H   0  0  0  0  0  0
   -4.1089    6.0898   -3.4731 H   0  0  0  0  0  0
   -2.6878    6.0336   -4.5162 H   0  0  0  0  0  0
  1  5  1  0  0  0
  1  2  1  0  0  0
  1 26  1  0  0  0
  1 27  1  0  0  0
  2  3  1  0  0  0
  2 28  1  0  0  0
  2 29  1  0  0  0
  3  6  1  0  0  0
  3  4  1  0  0  0
  3 30  1  0  0  0
  4  9  1  0  0  0
  4  5  1  0  0  0
  5 31  1  0  0  0
  5 32  1  0  0  0
  6  7  1  0  0  0
  6  8  2  0  0  0
  7 13  1  0  0  0
  7 33  1  0  0  0
  9 10  1  0  0  0
  9 11  2  0  0  0
  9 12  2  0  0  0
 10 23  1  0  0  0
 10 34  1  0  0  0
 10 35  1  0  0  0
 13 14  1  0  0  0
 13 15  1  0  0  0
 13 36  1  0  0  0
 14 22  2  0  0  0
 14 37  1  0  0  0
 15 16  1  0  0  0
 15 38  1  0  0  0
 15 39  1  0  0  0
 16 17  2  0  0  0
 16 21  1  0  0  0
 17 18  1  0  0  0
 17 40  1  0  0  0
 18 19  2  0  0  0
 18 41  1  0  0  0
 19 20  1  0  0  0
 19 42  1  0  0  0
 20 21  2  0  0  0
 20 43  1  0  0  0
 21 44  1  0  0  0
 23 24  1  0  0  0
 23 45  1  0  0  0
 23 46  1  0  0  0
 24 25  1  0  0  0
 24 47  1  0  0  0
 24 48  1  0  0  0
 25 49  1  0  0  0
 25 50  1  0  0  0
 25 51  1  0  0  0
M  END
> <chembl_id>
CHEMBL212234

> <chembl_pref_name>
None

> <i_m_ct_stereo_status>
1

> <s_m_source_file>
sdf/inactives_sanitized.sdf

> <i_m_source_file_index>
158

> <i_lp_mmshare_version>
49012

> <i_f3d_flags>
0

> <s_epik_input>
W0NIM11bQ0gyXVtDSDJdW0NIMl1TKD1PKSg9TylOMVtDSDJdW0NIMl1bQ0gyXVtDQEBIXTFDKD1PKVtOSF1bQ0BIXShbQ0hdPU8pW0NIMl1jMltjSF1bY0hdW2NIXVtjSF1bY0hdMg==

> <s_epik_cmdline>
J2VwaWtfcHl0aG9uJywgJy1waHQnLCAnMC41JywgJy1waCcsICc3LjUnLCAnLW50JywgJy1tYScsICcyMDAnLCAnLWltYWUnLCAnPGluZmlsZS5tYWU+JywgJy1vbWFlJywgJzxvdXRmaWxlLm1hZT4n

> <r_lp_tautomer_probability>
1

> <r_epik_Ionization_Penalty>
  0.0030

> <r_epik_Ionization_Penalty_Charging>
  0.0000

> <r_epik_Ionization_Penalty_Neutral>
  0.0030

> <r_epik_State_Penalty>
 -0.0000

> <r_epik_Charging_Adjusted_Penalty>
0

> <i_epik_Tot_Q>
0

> <i_epik_Tot_abs_Q>
0

> <s_lp_Force_Field>
OPLS3e

> <r_lp_Energy>
23.182698

> <b_lp_Chiralities_Consistent>
1

> <s_lp_Variant>
sdf/inactives_sanitized.sdf:158-1

$$$$
sdf/inactives_sanitized.sdf:159
                    3D
 Schrodinger Suite 2020-1.
 48 49  0  0  1  0            999 V2000
   -2.0749   -0.1245    1.2744 C   0  0  0  0  0  0
   -0.6782   -0.7145    1.1954 C   0  0  0  0  0  0
   -0.1097   -0.2480   -0.1516 C   0  0  1  0  0  0
   -0.7563    1.0884   -0.3154 N   0  0  2  0  0  0
   -2.1331    1.0010    0.2393 C   0  0  0  0  0  0
    1.4299   -0.1719   -0.1091 C   0  0  0  0  0  0
    2.0909   -1.1163   -0.8026 N   0  0  0  0  0  0
    1.9974    0.6584    0.6034 O   0  0  0  0  0  0
   -0.5165    2.0119   -1.8201 S   0  0  0  0  0  0
   -0.9775    3.8057   -1.3564 C   0  0  0  0  0  0
    0.9130    1.9768   -2.1497 O   0  0  0  0  0  0
   -1.4868    1.5066   -2.7986 O   0  0  0  0  0  0
    3.5417   -1.3367   -0.7896 C   0  0  2  0  0  0
    4.0106   -0.9156   -2.1674 C   0  0  0  0  0  0
    3.8678   -2.8122   -0.4393 C   0  0  0  0  0  0
    3.3898   -3.2547    0.9348 C   0  0  0  0  0  0
    2.0938   -3.7894    1.1021 C   0  0  0  0  0  0
    1.6225   -4.0866    2.3737 C   0  0  0  0  0  0
    2.4123   -3.8356    3.4884 C   0  0  0  0  0  0
    3.6742   -3.2731    3.3427 C   0  0  0  0  0  0
    4.1629   -2.9666    2.0794 C   0  0  0  0  0  0
    4.8306   -1.5494   -2.8314 O   0  0  0  0  0  0
   -2.4761    4.0586   -1.6075 C   0  0  0  0  0  0
   -0.0998    4.7856   -2.1534 C   0  0  0  0  0  0
   -2.2742    0.2561    2.2769 H   0  0  0  0  0  0
   -2.8319   -0.8808    1.0607 H   0  0  0  0  0  0
   -0.7158   -1.8037    1.2478 H   0  0  0  0  0  0
   -0.0735   -0.3864    2.0444 H   0  0  0  0  0  0
   -0.4216   -0.9265   -0.9492 H   0  0  0  0  0  0
   -2.5127    1.9670    0.5688 H   0  0  0  0  0  0
   -2.8139    0.7133   -0.5635 H   0  0  0  0  0  0
    1.5566   -1.7995   -1.3195 H   0  0  0  0  0  0
   -0.7615    3.9134   -0.2929 H   0  0  0  0  0  0
    4.0260   -0.6949   -0.0505 H   0  0  0  0  0  0
    3.5878    0.0201   -2.5356 H   0  0  0  0  0  0
    3.4238   -3.4833   -1.1774 H   0  0  0  0  0  0
    4.9456   -2.9771   -0.4886 H   0  0  0  0  0  0
    1.4635   -3.9663    0.2430 H   0  0  0  0  0  0
    0.6346   -4.5056    2.4965 H   0  0  0  0  0  0
    2.0381   -4.0667    4.4748 H   0  0  0  0  0  0
    4.2739   -3.0640    4.2163 H   0  0  0  0  0  0
    5.1355   -2.5077    1.9772 H   0  0  0  0  0  0
   -2.7656    5.0558   -1.2749 H   0  0  0  0  0  0
   -3.1079    3.3473   -1.0795 H   0  0  0  0  0  0
   -2.7192    3.9803   -2.6678 H   0  0  0  0  0  0
   -0.3436    5.8206   -1.9119 H   0  0  0  0  0  0
   -0.2299    4.6524   -3.2281 H   0  0  0  0  0  0
    0.9575    4.6418   -1.9289 H   0  0  0  0  0  0
  1  5  1  0  0  0
  1  2  1  0  0  0
  1 25  1  0  0  0
  1 26  1  0  0  0
  2  3  1  0  0  0
  2 27  1  0  0  0
  2 28  1  0  0  0
  3  6  1  0  0  0
  3  4  1  0  0  0
  3 29  1  0  0  0
  4  9  1  0  0  0
  4  5  1  0  0  0
  5 30  1  0  0  0
  5 31  1  0  0  0
  6  7  1  0  0  0
  6  8  2  0  0  0
  7 13  1  0  0  0
  7 32  1  0  0  0
  9 12  2  0  0  0
  9 10  1  0  0  0
  9 11  2  0  0  0
 10 23  1  0  0  0
 10 24  1  0  0  0
 10 33  1  0  0  0
 13 14  1  0  0  0
 13 15  1  0  0  0
 13 34  1  0  0  0
 14 22  2  0  0  0
 14 35  1  0  0  0
 15 16  1  0  0  0
 15 36  1  0  0  0
 15 37  1  0  0  0
 16 17  2  0  0  0
 16 21  1  0  0  0
 17 18  1  0  0  0
 17 38  1  0  0  0
 18 19  2  0  0  0
 18 39  1  0  0  0
 19 20  1  0  0  0
 19 40  1  0  0  0
 20 21  2  0  0  0
 20 41  1  0  0  0
 21 42  1  0  0  0
 23 43  1  0  0  0
 23 44  1  0  0  0
 23 45  1  0  0  0
 24 46  1  0  0  0
 24 47  1  0  0  0
 24 48  1  0  0  0
M  END
> <chembl_id>
CHEMBL379793

> <chembl_pref_name>
None

> <i_m_ct_stereo_status>
1

> <s_m_source_file>
sdf/inactives_sanitized.sdf

> <i_m_source_file_index>
159

> <i_lp_mmshare_version>
49012

> <i_f3d_flags>
0

> <s_epik_input>
W0NIM11bQ0hdKFtDSDNdKVMoPU8pKD1PKU4xW0NIMl1bQ0gyXVtDSDJdW0NAQEhdMUMoPU8pW05IXVtDQEhdKFtDSF09TylbQ0gyXWMyW2NIXVtjSF1bY0hdW2NIXVtjSF0y

> <s_epik_cmdline>
J2VwaWtfcHl0aG9uJywgJy1waHQnLCAnMC41JywgJy1waCcsICc3LjUnLCAnLW50JywgJy1tYScsICcyMDAnLCAnLWltYWUnLCAnPGluZmlsZS5tYWU+JywgJy1vbWFlJywgJzxvdXRmaWxlLm1hZT4n

> <r_lp_tautomer_probability>
1

> <r_epik_Ionization_Penalty>
  0.0030

> <r_epik_Ionization_Penalty_Charging>
  0.0000

> <r_epik_Ionization_Penalty_Neutral>
  0.0030

> <r_epik_State_Penalty>
 -0.0000

> <r_epik_Charging_Adjusted_Penalty>
0

> <i_epik_Tot_Q>
0

> <i_epik_Tot_abs_Q>
0

> <s_lp_Force_Field>
OPLS3e

> <r_lp_Energy>
27.524419

> <b_lp_Chiralities_Consistent>
1

> <s_lp_Variant>
sdf/inactives_sanitized.sdf:159-1

$$$$
sdf/inactives_sanitized.sdf:160
                    3D
 Schrodinger Suite 2020-1.
 72 75  0  0  1  0            999 V2000
   -2.0941    0.8488   -0.1638 C   0  0  0  0  0  0
   -2.6781   -0.3932   -0.4525 C   0  0  0  0  0  0
   -1.8974   -1.5369   -0.6054 C   0  0  0  0  0  0
   -0.5143   -1.4608   -0.4653 C   0  0  0  0  0  0
    0.1021   -0.2420   -0.1657 C   0  0  0  0  0  0
   -0.6977    0.9040   -0.0348 C   0  0  0  0  0  0
    1.6334   -0.1800   -0.0428 C   0  0  2  0  0  0
    2.0694    0.5910    1.2270 C   0  0  0  0  0  0
    2.2717    0.3553   -1.3575 C   0  0  0  0  0  0
    3.8230    0.3665   -1.4297 C   0  0  0  0  0  0
    4.3046    1.0057   -2.7452 C   0  0  0  0  0  0
    4.4447   -1.0321   -1.2448 C   0  0  0  0  0  0
    2.2913    1.8023    1.1813 O   0  0  0  0  0  0
    2.1677   -0.1238    2.3614 N   0  0  0  0  0  0
    2.5096    0.4377    3.6656 C   0  0  0  0  0  0
    1.5008    1.3914    4.1610 C   0  0  0  0  0  0
    0.7086    2.1400    4.5496 N   0  0  0  0  0  0
   -2.9330    2.0754    0.0068 C   0  0  0  0  0  0
   -4.2257    1.9953    0.5429 C   0  0  0  0  0  0
   -5.0053    3.1366    0.7099 C   0  0  0  0  0  0
   -4.5033    4.3826    0.3455 C   0  0  0  0  0  0
   -3.2147    4.5058   -0.1925 C   0  0  0  0  0  0
   -2.4490    3.3422   -0.3570 C   0  0  0  0  0  0
   -2.6559    5.8455   -0.5855 C   0  0  0  0  0  0
   -3.4382    6.9160   -0.6165 N   0  0  0  0  0  0
   -2.8137    8.0138   -0.9697 C   0  0  0  0  0  0
   -1.1255    7.7986   -1.3131 S   0  0  0  0  0  0
   -1.3276    6.1157   -0.9369 C   0  0  0  0  0  0
   -3.4017    9.2532   -1.0847 N   0  0  0  0  0  0
   -4.6535    9.6000   -0.4306 C   0  0  0  0  0  0
   -5.0180   10.9739   -0.9784 C   0  0  0  0  0  0
   -3.6748   11.6874   -1.2005 C   0  0  2  0  0  0
   -2.6740   10.5114   -1.2179 C   0  0  0  0  0  0
   -3.2995   12.8285   -0.2176 N   0  3  0  0  0  0
   -4.3721   13.9351   -0.1183 C   0  0  0  0  0  0
   -1.9368   13.4656   -0.5688 C   0  0  0  0  0  0
   -3.7477   -0.4813   -0.5742 H   0  0  0  0  0  0
   -2.3652   -2.4829   -0.8353 H   0  0  0  0  0  0
    0.0769   -2.3561   -0.5922 H   0  0  0  0  0  0
   -0.2225    1.8481    0.1868 H   0  0  0  0  0  0
    1.9738   -1.2090    0.0859 H   0  0  0  0  0  0
    1.8999   -0.2446   -2.1903 H   0  0  0  0  0  0
    1.9040    1.3666   -1.5433 H   0  0  0  0  0  0
    4.2000    0.9969   -0.6234 H   0  0  0  0  0  0
    3.9795    0.4291   -3.6122 H   0  0  0  0  0  0
    5.3929    1.0701   -2.7793 H   0  0  0  0  0  0
    3.9180    2.0193   -2.8578 H   0  0  0  0  0  0
    4.0738   -1.7364   -1.9906 H   0  0  0  0  0  0
    4.2269   -1.4434   -0.2593 H   0  0  0  0  0  0
    5.5308   -0.9959   -1.3367 H   0  0  0  0  0  0
    1.9066   -1.0988    2.3448 H   0  0  0  0  0  0
    2.5897   -0.3732    4.3895 H   0  0  0  0  0  0
    3.4808    0.9339    3.6303 H   0  0  0  0  0  0
   -4.6356    1.0441    0.8489 H   0  0  0  0  0  0
   -5.9979    3.0557    1.1276 H   0  0  0  0  0  0
   -5.1261    5.2533    0.4906 H   0  0  0  0  0  0
   -1.4619    3.4192   -0.7870 H   0  0  0  0  0  0
   -0.4884    5.4382   -0.9885 H   0  0  0  0  0  0
   -5.4113    8.8628   -0.7006 H   0  0  0  0  0  0
   -4.5573    9.5721    0.6560 H   0  0  0  0  0  0
   -5.5820   10.8771   -1.9080 H   0  0  0  0  0  0
   -5.6773   11.4765   -0.2741 H   0  0  0  0  0  0
   -3.6943   12.1945   -2.1675 H   0  0  0  0  0  0
   -2.0498   10.5304   -2.1122 H   0  0  0  0  0  0
   -1.9846   10.5881   -0.3758 H   0  0  0  0  0  0
   -4.5453   14.3223   -1.1236 H   0  0  0  0  0  0
   -3.9848   14.7101    0.5446 H   0  0  0  0  0  0
   -5.2755   13.5045    0.3095 H   0  0  0  0  0  0
   -2.0211   13.9089   -1.5624 H   0  0  0  0  0  0
   -1.1779   12.6841   -0.5442 H   0  0  0  0  0  0
   -1.7234   14.2210    0.1885 H   0  0  0  0  0  0
   -3.2020   12.4137    0.6989 H   0  0  0  0  0  0
  1 18  1  0  0  0
  1  6  2  0  0  0
  1  2  1  0  0  0
  2  3  2  0  0  0
  2 37  1  0  0  0
  3  4  1  0  0  0
  3 38  1  0  0  0
  4  5  2  0  0  0
  4 39  1  0  0  0
  5  6  1  0  0  0
  5  7  1  0  0  0
  6 40  1  0  0  0
  7  9  1  0  0  0
  7  8  1  0  0  0
  7 41  1  0  0  0
  8 13  2  0  0  0
  8 14  1  0  0  0
  9 10  1  0  0  0
  9 42  1  0  0  0
  9 43  1  0  0  0
 10 11  1  0  0  0
 10 12  1  0  0  0
 10 44  1  0  0  0
 11 45  1  0  0  0
 11 46  1  0  0  0
 11 47  1  0  0  0
 12 48  1  0  0  0
 12 49  1  0  0  0
 12 50  1  0  0  0
 14 15  1  0  0  0
 14 51  1  0  0  0
 15 16  1  0  0  0
 15 52  1  0  0  0
 15 53  1  0  0  0
 16 17  3  0  0  0
 18 19  2  0  0  0
 18 23  1  0  0  0
 19 20  1  0  0  0
 19 54  1  0  0  0
 20 21  2  0  0  0
 20 55  1  0  0  0
 21 22  1  0  0  0
 21 56  1  0  0  0
 22 23  2  0  0  0
 22 24  1  0  0  0
 23 57  1  0  0  0
 24 25  1  0  0  0
 24 28  2  0  0  0
 25 26  2  0  0  0
 26 27  1  0  0  0
 26 29  1  0  0  0
 27 28  1  0  0  0
 28 58  1  0  0  0
 29 30  1  0  0  0
 29 33  1  0  0  0
 30 31  1  0  0  0
 30 59  1  0  0  0
 30 60  1  0  0  0
 31 32  1  0  0  0
 31 61  1  0  0  0
 31 62  1  0  0  0
 32 33  1  0  0  0
 32 34  1  0  0  0
 32 63  1  0  0  0
 33 64  1  0  0  0
 33 65  1  0  0  0
 34 35  1  0  0  0
 34 36  1  0  0  0
 34 72  1  0  0  0
 35 66  1  0  0  0
 35 67  1  0  0  0
 35 68  1  0  0  0
 36 69  1  0  0  0
 36 70  1  0  0  0
 36 71  1  0  0  0
M  CHG  1  34   1
M  END
> <chembl_id>
CHEMBL213244

> <chembl_pref_name>
None

> <i_m_ct_stereo_status>
1

> <s_m_source_file>
sdf/inactives_sanitized.sdf

> <i_m_source_file_index>
160

> <i_lp_mmshare_version>
49012

> <i_f3d_flags>
0

> <s_epik_input>
TiNDW0NIMl1bTkhdQyg9TylbQ0BIXShbQ0gyXVtDSF0oW0NIM10pW0NIM10pYyhbY0hdMSlbY0hdW2NIXVtjSF1jMS1jMltjSF1bY0hdW2NIXWMoW2NIXTIpLWMzbmMoc1tjSF0zKU40W0NIMl1bQ0gyXVtDQEhdKFtDSDJdNClOKFtDSDNdKVtDSDNd

> <s_epik_cmdline>
J2VwaWtfcHl0aG9uJywgJy1waHQnLCAnMC41JywgJy1waCcsICc3LjUnLCAnLW50JywgJy1tYScsICcyMDAnLCAnLWltYWUnLCAnPGluZmlsZS5tYWU+JywgJy1vbWFlJywgJzxvdXRmaWxlLm1hZT4n

> <r_epik_Ionization_Penalty>
  0.0134

> <r_epik_Ionization_Penalty_Charging>
  0.0128

> <r_epik_Ionization_Penalty_Neutral>
  0.0006

> <r_epik_State_Penalty>
  0.0100

> <r_epik_Charging_Adjusted_Penalty>
0.0227849641353368

> <i_epik_Tot_Q>
1

> <i_epik_Tot_abs_Q>
1

> <s_lp_Force_Field>
OPLS3e

> <r_lp_Energy>
48.982294

> <b_lp_Chiralities_Consistent>
1

> <s_lp_Variant>
sdf/inactives_sanitized.sdf:160-1

$$$$
sdf/inactives_sanitized.sdf:161
                    3D
 Schrodinger Suite 2020-1.
 95 98  0  0  1  0            999 V2000
   -0.1991    1.4821   -0.1708 N   0  0  0  0  0  0
    0.2306    0.2017   -0.0141 C   0  0  0  0  0  0
   -1.6278    1.8448   -0.1777 C   0  0  2  0  0  0
   -2.2098    1.9655   -1.6065 C   0  0  0  0  0  0
   -3.8869    3.7688   -3.5467 C   0  0  0  0  0  0
   -3.9517    5.0804   -2.6513 C   0  0  0  0  0  0
    3.2299    0.5256    1.9646 C   0  0  0  0  0  0
    2.1436   -0.0790    1.4544 N   0  0  0  0  0  0
    1.7579   -0.0921    0.0381 C   0  0  1  0  0  0
    4.8928    0.2723    3.8315 N   0  0  0  0  0  0
    5.7652   -0.7024    3.5034 C   0  0  0  0  0  0
    0.6370    2.6785   -0.0304 C   0  0  0  0  0  0
   -3.5362    2.2020   -1.6764 N   0  0  0  0  0  0
    3.4657    0.3094    3.4819 C   0  0  1  0  0  0
    7.1965   -0.5094    3.9561 C   0  0  0  0  0  0
   -1.6940    3.1728    0.6130 C   0  0  2  0  0  0
   -3.2822    6.1108   -3.1993 N   0  0  0  0  0  0
   -4.3584    2.4706   -2.8755 C   0  0  2  0  0  0
   -0.2475    3.6715    0.7413 C   0  0  1  0  0  0
   -3.0651    7.3919   -2.5359 C   0  0  0  0  0  0
    2.2508   -1.3860   -0.7309 C   0  0  0  0  0  0
    7.5408    0.6510    4.5925 N   0  0  0  0  0  0
   -0.5507   -0.7497    0.0508 O   0  0  0  0  0  0
   -1.4948    1.8585   -2.6051 O   0  0  0  0  0  0
   -4.2526    8.2763   -2.2179 C   0  0  0  0  0  0
   -3.2983    8.6597   -3.3235 C   0  0  0  0  0  0
   -3.4977    3.8310   -4.7170 O   0  0  0  0  0  0
   -4.5545    5.0985   -1.5764 O   0  0  0  0  0  0
    4.0116    1.2127    1.3033 O   0  0  0  0  0  0
    5.4356   -1.7095    2.8726 O   0  0  0  0  0  0
    9.4565   -1.3502    4.1254 N   0  0  0  0  0  0
    2.7155    1.4294    4.2733 C   0  0  0  0  0  0
    8.1649   -1.5016    3.7298 C   0  0  0  0  0  0
   -2.2187    2.9991    2.0512 C   0  0  0  0  0  0
    0.0492    3.7307    2.2520 C   0  0  0  0  0  0
   -0.9681    2.7961    2.9035 C   0  0  0  0  0  0
   -4.4419    1.2728   -3.8646 C   0  0  0  0  0  0
    8.8324    0.8033    4.9857 C   0  0  0  0  0  0
    3.7987   -1.3586   -0.8460 C   0  0  0  0  0  0
    1.6976   -1.4475   -2.1802 C   0  0  0  0  0  0
    1.8855   -2.7037    0.0078 C   0  0  0  0  0  0
    9.7833   -0.1915    4.7533 C   0  0  0  0  0  0
    3.3148    2.8459    4.1163 C   0  0  0  0  0  0
    2.6059    1.0787    5.7683 C   0  0  0  0  0  0
   -4.9613   -0.0299   -3.2227 C   0  0  0  0  0  0
   -5.0976   -1.1783   -4.2310 C   0  0  0  0  0  0
   -2.2417    1.0607    0.2694 H   0  0  0  0  0  0
    1.5477   -0.6154    2.0683 H   0  0  0  0  0  0
    2.2487    0.7339   -0.4777 H   0  0  0  0  0  0
    5.2340    1.0727    4.3437 H   0  0  0  0  0  0
    1.6069    2.5531    0.4503 H   0  0  0  0  0  0
    0.7900    3.1046   -1.0228 H   0  0  0  0  0  0
   -4.0453    2.2579   -0.8061 H   0  0  0  0  0  0
    3.0424   -0.6586    3.7615 H   0  0  0  0  0  0
   -2.3016    3.9290    0.1096 H   0  0  0  0  0  0
   -2.7790    5.9533   -4.0607 H   0  0  0  0  0  0
   -5.3729    2.6388   -2.5101 H   0  0  0  0  0  0
   -0.1505    4.6658    0.3019 H   0  0  0  0  0  0
   -2.2442    7.3741   -1.8175 H   0  0  0  0  0  0
   -5.2529    7.9275   -2.4772 H   0  0  0  0  0  0
   -4.2394    8.8386   -1.2840 H   0  0  0  0  0  0
   -2.6158    9.4955   -3.1689 H   0  0  0  0  0  0
   -3.6286    8.5809   -4.3599 H   0  0  0  0  0  0
    1.6872    1.4763    3.9096 H   0  0  0  0  0  0
    7.9268   -2.4307    3.2316 H   0  0  0  0  0  0
   -2.7554    3.8950    2.3680 H   0  0  0  0  0  0
   -2.9093    2.1608    2.1525 H   0  0  0  0  0  0
    1.0692    3.4333    2.4894 H   0  0  0  0  0  0
   -0.0791    4.7500    2.6198 H   0  0  0  0  0  0
   -0.6289    1.7603    2.8409 H   0  0  0  0  0  0
   -1.1353    3.0296    3.9553 H   0  0  0  0  0  0
   -5.1005    1.5374   -4.6942 H   0  0  0  0  0  0
   -3.4600    1.0776   -4.2998 H   0  0  0  0  0  0
    9.0924    1.7250    5.4851 H   0  0  0  0  0  0
    4.1730   -2.2037   -1.4257 H   0  0  0  0  0  0
    4.2860   -1.4166    0.1276 H   0  0  0  0  0  0
    4.1520   -0.4529   -1.3407 H   0  0  0  0  0  0
    1.9999   -0.5745   -2.7601 H   0  0  0  0  0  0
    0.6098   -1.5067   -2.2111 H   0  0  0  0  0  0
    2.0662   -2.3262   -2.7116 H   0  0  0  0  0  0
    2.2323   -3.5757   -0.5486 H   0  0  0  0  0  0
    0.8122   -2.8330    0.1367 H   0  0  0  0  0  0
    2.3490   -2.7617    0.9936 H   0  0  0  0  0  0
   10.8103   -0.0718    5.0656 H   0  0  0  0  0  0
    4.3325    2.8954    4.5047 H   0  0  0  0  0  0
    2.7221    3.5819    4.6600 H   0  0  0  0  0  0
    3.3451    3.1644    3.0747 H   0  0  0  0  0  0
    3.5882    1.0153    6.2375 H   0  0  0  0  0  0
    2.1074    0.1197    5.9113 H   0  0  0  0  0  0
    2.0287    1.8297    6.3086 H   0  0  0  0  0  0
   -4.2895   -0.3454   -2.4234 H   0  0  0  0  0  0
   -5.9314    0.1524   -2.7586 H   0  0  0  0  0  0
   -5.4689   -2.0808   -3.7446 H   0  0  0  0  0  0
   -4.1368   -1.4198   -4.6866 H   0  0  0  0  0  0
   -5.7935   -0.9233   -5.0310 H   0  0  0  0  0  0
  1  2  1  0  0  0
  1  3  1  0  0  0
  1 12  1  0  0  0
  2  9  1  0  0  0
  2 23  2  0  0  0
  3  4  1  0  0  0
  3 16  1  0  0  0
  3 47  1  0  0  0
  4 13  1  0  0  0
  4 24  2  0  0  0
  5 18  1  0  0  0
  5  6  1  0  0  0
  5 27  2  0  0  0
  6 17  1  0  0  0
  6 28  2  0  0  0
  7  8  1  0  0  0
  7 14  1  0  0  0
  7 29  2  0  0  0
  8  9  1  0  0  0
  8 48  1  0  0  0
  9 21  1  0  0  0
  9 49  1  0  0  0
 10 14  1  0  0  0
 10 11  1  0  0  0
 10 50  1  0  0  0
 11 15  1  0  0  0
 11 30  2  0  0  0
 12 19  1  0  0  0
 12 51  1  0  0  0
 12 52  1  0  0  0
 13 18  1  0  0  0
 13 53  1  0  0  0
 14 32  1  0  0  0
 14 54  1  0  0  0
 15 22  2  0  0  0
 15 33  1  0  0  0
 16 34  1  0  0  0
 16 19  1  0  0  0
 16 55  1  0  0  0
 17 20  1  0  0  0
 17 56  1  0  0  0
 18 37  1  0  0  0
 18 57  1  0  0  0
 19 35  1  0  0  0
 19 58  1  0  0  0
 20 25  1  0  0  0
 20 26  1  0  0  0
 20 59  1  0  0  0
 21 39  1  0  0  0
 21 40  1  0  0  0
 21 41  1  0  0  0
 22 38  1  0  0  0
 25 26  1  0  0  0
 25 60  1  0  0  0
 25 61  1  0  0  0
 26 62  1  0  0  0
 26 63  1  0  0  0
 31 33  2  0  0  0
 31 42  1  0  0  0
 32 43  1  0  0  0
 32 44  1  0  0  0
 32 64  1  0  0  0
 33 65  1  0  0  0
 34 36  1  0  0  0
 34 66  1  0  0  0
 34 67  1  0  0  0
 35 36  1  0  0  0
 35 68  1  0  0  0
 35 69  1  0  0  0
 36 70  1  0  0  0
 36 71  1  0  0  0
 37 45  1  0  0  0
 37 72  1  0  0  0
 37 73  1  0  0  0
 38 42  2  0  0  0
 38 74  1  0  0  0
 39 75  1  0  0  0
 39 76  1  0  0  0
 39 77  1  0  0  0
 40 78  1  0  0  0
 40 79  1  0  0  0
 40 80  1  0  0  0
 41 81  1  0  0  0
 41 82  1  0  0  0
 41 83  1  0  0  0
 42 84  1  0  0  0
 43 85  1  0  0  0
 43 86  1  0  0  0
 43 87  1  0  0  0
 44 88  1  0  0  0
 44 89  1  0  0  0
 44 90  1  0  0  0
 45 46  1  0  0  0
 45 91  1  0  0  0
 45 92  1  0  0  0
 46 93  1  0  0  0
 46 94  1  0  0  0
 46 95  1  0  0  0
M  END
> <chembl_id>
CHEMBL315390

> <chembl_pref_name>
None

> <i_m_ct_stereo_status>
1

> <s_m_source_file>
sdf/inactives_sanitized.sdf

> <i_m_source_file_index>
161

> <i_lp_mmshare_version>
49012

> <i_f3d_flags>
0

> <s_epik_input>
W0NIMl0xW0NIMl1bQ0hdMVtOSF1DKD1PKUMoPU8pW0NAQEhdKFtDSDJdW0NIMl1bQ0gzXSlbTkhdQyg9TylbQ0BIXTJOKFtDSDJdW0NAQEhdKFtDQEBIXTIzKVtDSDJdW0NIMl1bQ0gyXTMpQyg9TylbQ0BIXShDKFtDSDNdKShbQ0gzXSlbQ0gzXSlbTkhdQyg9TylbQ0BIXShbQ0hdKFtDSDNdKVtDSDNdKVtOSF1DKD1PKWM0bltjSF1bY0hdbltjSF00

> <s_epik_cmdline>
J2VwaWtfcHl0aG9uJywgJy1waHQnLCAnMC41JywgJy1waCcsICc3LjUnLCAnLW50JywgJy1tYScsICcyMDAnLCAnLWltYWUnLCAnPGluZmlsZS5tYWU+JywgJy1vbWFlJywgJzxvdXRmaWxlLm1hZT4n

> <r_lp_tautomer_probability>
1

> <r_epik_Ionization_Penalty>
  0.0000

> <r_epik_Ionization_Penalty_Charging>
  0.0000

> <r_epik_Ionization_Penalty_Neutral>
  0.0000

> <r_epik_State_Penalty>
 -0.0000

> <r_epik_Charging_Adjusted_Penalty>
0

> <i_epik_Tot_Q>
0

> <i_epik_Tot_abs_Q>
0

> <s_lp_Force_Field>
OPLS3e

> <r_lp_Energy>
47.994788

> <b_lp_Chiralities_Consistent>
1

> <s_lp_Variant>
sdf/inactives_sanitized.sdf:161-1

$$$$
sdf/inactives_sanitized.sdf:162
                    3D
 Schrodinger Suite 2020-1.
 98101  0  0  1  0            999 V2000
   -0.6822    1.0498    0.1387 N   0  0  0  0  0  0
   -0.2825    0.1814    1.1063 C   0  0  0  0  0  0
   -1.9802    1.7486    0.1868 C   0  0  2  0  0  0
   -3.0692    0.9631   -0.5903 C   0  0  0  0  0  0
   -5.6498   -0.8162   -0.7513 C   0  0  0  0  0  0
   -6.2612   -0.2840    0.6191 C   0  0  0  0  0  0
    2.5200    0.8014    2.4664 C   0  0  0  0  0  0
    1.8699   -0.3400    2.1812 N   0  0  0  0  0  0
    1.0744   -0.5743    0.9700 C   0  0  1  0  0  0
    4.6587    1.1553    3.6618 N   0  0  0  0  0  0
    5.5776    0.3400    3.1030 C   0  0  0  0  0  0
    0.1757    1.6412   -0.8939 C   0  0  0  0  0  0
   -3.2743   -0.3100   -0.1916 N   0  0  0  0  0  0
    3.2327    0.8506    3.8397 C   0  0  1  0  0  0
    6.9895    0.8752    3.0025 C   0  0  0  0  0  0
   -1.6744    3.1769   -0.3244 C   0  0  2  0  0  0
   -7.5038    0.2095    0.4673 N   0  0  0  0  0  0
   -4.1999   -1.3196   -0.7378 C   0  0  1  0  0  0
   -0.2863    3.1063   -0.9783 C   0  0  1  0  0  0
   -8.3404    0.6763    1.5673 C   0  0  0  0  0  0
    0.9398   -2.1095    0.6306 C   0  0  0  0  0  0
    7.2675    2.1166    3.5040 N   0  0  0  0  0  0
   -1.0003   -0.1076    2.0677 O   0  0  0  0  0  0
   -3.7013    1.4827   -1.5107 O   0  0  0  0  0  0
   -9.0735    1.9877    1.4087 C   0  0  0  0  0  0
   -7.9082    1.8899    2.3638 C   0  0  0  0  0  0
   -6.3392   -0.8476   -1.7742 O   0  0  0  0  0  0
   -5.6294   -0.3318    1.6762 O   0  0  0  0  0  0
    2.5575    1.7828    1.7213 O   0  0  0  0  0  0
    5.3044   -0.7896    2.6898 O   0  0  0  0  0  0
    9.2811    0.5747    2.2945 N   0  0  0  0  0  0
    2.5310    1.9094    4.7616 C   0  0  2  0  0  0
    8.0064    0.1155    2.4005 C   0  0  0  0  0  0
   -1.5624    4.2162    0.8093 C   0  0  0  0  0  0
    0.6062    4.0879   -0.1908 C   0  0  0  0  0  0
   -0.0776    4.2578    1.1644 C   0  0  0  0  0  0
   -4.0460   -2.6747    0.0034 C   0  0  0  0  0  0
    8.5420    2.5756    3.3981 C   0  0  0  0  0  0
    2.3489   -2.7395    0.4705 C   0  0  0  0  0  0
    0.1983   -2.2995   -0.7196 C   0  0  0  0  0  0
    0.1846   -2.9169    1.7210 C   0  0  0  0  0  0
    9.5416    1.8090    2.7967 C   0  0  0  0  0  0
    3.1811    1.9605    6.1682 C   0  0  0  0  0  0
    0.9979    1.7216    4.8981 C   0  0  0  0  0  0
   -4.8134   -3.8552   -0.6282 C   0  0  0  0  0  0
    2.7496    3.1642    7.0198 C   0  0  0  0  0  0
   -4.5432   -5.1872    0.0848 C   0  0  0  0  0  0
   -2.3919    1.7631    1.1976 H   0  0  0  0  0  0
    1.8866   -1.0980    2.8479 H   0  0  0  0  0  0
    1.6602   -0.1584    0.1539 H   0  0  0  0  0  0
    4.9501    2.0699    3.9747 H   0  0  0  0  0  0
    1.2529    1.5944   -0.7449 H   0  0  0  0  0  0
   -0.0687    1.1772   -1.8502 H   0  0  0  0  0  0
   -2.6636   -0.6629    0.5318 H   0  0  0  0  0  0
    3.1618   -0.1255    4.3262 H   0  0  0  0  0  0
   -2.4109    3.5367   -1.0448 H   0  0  0  0  0  0
   -7.9403    0.1425   -0.4410 H   0  0  0  0  0  0
   -3.8701   -1.4884   -1.7651 H   0  0  0  0  0  0
   -0.3458    3.4110   -2.0245 H   0  0  0  0  0  0
   -8.8360   -0.1306    2.1090 H   0  0  0  0  0  0
   -8.9529    2.5469    0.4803 H   0  0  0  0  0  0
  -10.0840    2.0646    1.8105 H   0  0  0  0  0  0
   -8.0963    1.8925    3.4377 H   0  0  0  0  0  0
   -6.9683    2.3801    2.1072 H   0  0  0  0  0  0
    2.6860    2.8915    4.3092 H   0  0  0  0  0  0
    7.8206   -0.8679    1.9923 H   0  0  0  0  0  0
   -1.8972    5.1940    0.4588 H   0  0  0  0  0  0
   -2.1712    3.9644    1.6787 H   0  0  0  0  0  0
    1.6311    3.7332   -0.0744 H   0  0  0  0  0  0
    0.6595    5.0454   -0.7117 H   0  0  0  0  0  0
    0.1788    3.4293    1.8274 H   0  0  0  0  0  0
    0.2082    5.1845    1.6630 H   0  0  0  0  0  0
   -2.9852   -2.9309    0.0299 H   0  0  0  0  0  0
   -4.3343   -2.5684    1.0504 H   0  0  0  0  0  0
    8.7494    3.5579    3.7965 H   0  0  0  0  0  0
    2.2887   -3.7975    0.2106 H   0  0  0  0  0  0
    2.9347   -2.6765    1.3885 H   0  0  0  0  0  0
    2.9201   -2.2510   -0.3202 H   0  0  0  0  0  0
    0.7339   -1.8240   -1.5424 H   0  0  0  0  0  0
   -0.8111   -1.8885   -0.7006 H   0  0  0  0  0  0
    0.0980   -3.3559   -0.9739 H   0  0  0  0  0  0
    0.2040   -3.9865    1.5072 H   0  0  0  0  0  0
   -0.8691   -2.6442    1.7819 H   0  0  0  0  0  0
    0.6264   -2.7805    2.7084 H   0  0  0  0  0  0
   10.5546    2.1732    2.7106 H   0  0  0  0  0  0
    2.9510    1.0393    6.7050 H   0  0  0  0  0  0
    4.2676    1.9882    6.0869 H   0  0  0  0  0  0
    0.7584    0.7431    5.3150 H   0  0  0  0  0  0
    0.4819    1.8089    3.9420 H   0  0  0  0  0  0
    0.5563    2.4753    5.5493 H   0  0  0  0  0  0
   -5.8862   -3.6594   -0.6069 H   0  0  0  0  0  0
   -4.5367   -3.9520   -1.6789 H   0  0  0  0  0  0
    3.5162    3.4142    7.7536 H   0  0  0  0  0  0
    1.8309    2.9511    7.5666 H   0  0  0  0  0  0
    2.5790    4.0508    6.4088 H   0  0  0  0  0  0
   -5.0981   -5.9997   -0.3847 H   0  0  0  0  0  0
   -4.8440   -5.1430    1.1321 H   0  0  0  0  0  0
   -3.4846   -5.4476    0.0509 H   0  0  0  0  0  0
  1  2  1  0  0  0
  1  3  1  0  0  0
  1 12  1  0  0  0
  2  9  1  0  0  0
  2 23  2  0  0  0
  3  4  1  0  0  0
  3 16  1  0  0  0
  3 48  1  0  0  0
  4 13  1  0  0  0
  4 24  2  0  0  0
  5 18  1  0  0  0
  5  6  1  0  0  0
  5 27  2  0  0  0
  6 17  1  0  0  0
  6 28  2  0  0  0
  7  8  1  0  0  0
  7 14  1  0  0  0
  7 29  2  0  0  0
  8  9  1  0  0  0
  8 49  1  0  0  0
  9 21  1  0  0  0
  9 50  1  0  0  0
 10 14  1  0  0  0
 10 11  1  0  0  0
 10 51  1  0  0  0
 11 15  1  0  0  0
 11 30  2  0  0  0
 12 19  1  0  0  0
 12 52  1  0  0  0
 12 53  1  0  0  0
 13 18  1  0  0  0
 13 54  1  0  0  0
 14 32  1  0  0  0
 14 55  1  0  0  0
 15 22  2  0  0  0
 15 33  1  0  0  0
 16 34  1  0  0  0
 16 19  1  0  0  0
 16 56  1  0  0  0
 17 20  1  0  0  0
 17 57  1  0  0  0
 18 37  1  0  0  0
 18 58  1  0  0  0
 19 35  1  0  0  0
 19 59  1  0  0  0
 20 25  1  0  0  0
 20 26  1  0  0  0
 20 60  1  0  0  0
 21 39  1  0  0  0
 21 40  1  0  0  0
 21 41  1  0  0  0
 22 38  1  0  0  0
 25 26  1  0  0  0
 25 61  1  0  0  0
 25 62  1  0  0  0
 26 63  1  0  0  0
 26 64  1  0  0  0
 31 33  2  0  0  0
 31 42  1  0  0  0
 32 43  1  0  0  0
 32 44  1  0  0  0
 32 65  1  0  0  0
 33 66  1  0  0  0
 34 36  1  0  0  0
 34 67  1  0  0  0
 34 68  1  0  0  0
 35 36  1  0  0  0
 35 69  1  0  0  0
 35 70  1  0  0  0
 36 71  1  0  0  0
 36 72  1  0  0  0
 37 45  1  0  0  0
 37 73  1  0  0  0
 37 74  1  0  0  0
 38 42  2  0  0  0
 38 75  1  0  0  0
 39 76  1  0  0  0
 39 77  1  0  0  0
 39 78  1  0  0  0
 40 79  1  0  0  0
 40 80  1  0  0  0
 40 81  1  0  0  0
 41 82  1  0  0  0
 41 83  1  0  0  0
 41 84  1  0  0  0
 42 85  1  0  0  0
 43 46  1  0  0  0
 43 86  1  0  0  0
 43 87  1  0  0  0
 44 88  1  0  0  0
 44 89  1  0  0  0
 44 90  1  0  0  0
 45 47  1  0  0  0
 45 91  1  0  0  0
 45 92  1  0  0  0
 46 93  1  0  0  0
 46 94  1  0  0  0
 46 95  1  0  0  0
 47 96  1  0  0  0
 47 97  1  0  0  0
 47 98  1  0  0  0
M  END
> <chembl_id>
CHEMBL2371795

> <chembl_pref_name>
None

> <i_m_ct_stereo_status>
1

> <s_m_source_file>
sdf/inactives_sanitized.sdf

> <i_m_source_file_index>
162

> <i_lp_mmshare_version>
49012

> <i_f3d_flags>
0

> <s_epik_input>
W0NIMl0xW0NIMl1bQ0hdMVtOSF1DKD1PKUMoPU8pW0NASF0oW0NIMl1bQ0gyXVtDSDNdKVtOSF1DKD1PKVtDQEhdMk4oW0NIMl1bQ0BASF0oW0NAQEhdMjMpW0NIMl1bQ0gyXVtDSDJdMylDKD1PKVtDQEhdKEMoW0NIM10pKFtDSDNdKVtDSDNdKVtOSF1DKD1PKVtDQEhdKFtDQEBIXShbQ0gzXSlbQ0gyXVtDSDNdKVtOSF1DKD1PKWM0bltjSF1bY0hdbltjSF00

> <s_epik_cmdline>
J2VwaWtfcHl0aG9uJywgJy1waHQnLCAnMC41JywgJy1waCcsICc3LjUnLCAnLW50JywgJy1tYScsICcyMDAnLCAnLWltYWUnLCAnPGluZmlsZS5tYWU+JywgJy1vbWFlJywgJzxvdXRmaWxlLm1hZT4n

> <r_lp_tautomer_probability>
1

> <r_epik_Ionization_Penalty>
  0.0000

> <r_epik_Ionization_Penalty_Charging>
  0.0000

> <r_epik_Ionization_Penalty_Neutral>
  0.0000

> <r_epik_State_Penalty>
 -0.0000

> <r_epik_Charging_Adjusted_Penalty>
0

> <i_epik_Tot_Q>
0

> <i_epik_Tot_abs_Q>
0

> <s_lp_Force_Field>
OPLS3e

> <r_lp_Energy>
47.283706

> <b_lp_Chiralities_Consistent>
1

> <s_lp_Variant>
sdf/inactives_sanitized.sdf:162-1

$$$$
sdf/inactives_sanitized.sdf:163
                    3D
 Schrodinger Suite 2020-1.
 76 79  0  0  1  0            999 V2000
   -6.1411   -1.8144   -3.2145 C   0  0  0  0  0  0
   -6.8128   -0.7648   -2.3032 C   0  0  0  0  0  0
   -6.5456   -1.0155   -0.7792 C   0  0  0  0  0  0
   -7.0729   -2.4586   -0.4768 C   0  0  0  0  0  0
   -6.4090   -3.5421   -1.3549 C   0  0  0  0  0  0
   -6.5902   -3.2428   -2.8546 C   0  0  0  0  0  0
   -5.1161   -0.8987   -0.4126 N   0  0  0  0  0  0
   -7.4402   -0.0250    0.0499 C   0  0  0  0  0  0
   -7.5920   -0.2806    1.3646 N   0  0  0  0  0  0
   -7.8459    1.0291   -0.4460 O   0  0  0  0  0  0
   -8.3396    0.5603    2.2955 C   0  0  0  0  0  0
   -9.7823    0.5975    1.9981 C   0  0  0  0  0  0
  -10.9153    0.6260    1.7647 N   0  0  0  0  0  0
   -4.3211    0.1949   -0.4183 C   0  0  0  0  0  0
   -2.8713   -0.0368   -0.0517 C   0  0  0  0  0  0
   -4.7315    1.3292   -0.6707 O   0  0  0  0  0  0
   -2.0880    1.0339    0.3964 C   0  0  0  0  0  0
   -0.7522    0.8415    0.7375 C   0  0  0  0  0  0
   -0.1653   -0.4251    0.6383 C   0  0  0  0  0  0
   -0.9465   -1.4955    0.1842 C   0  0  0  0  0  0
   -2.2821   -1.3054   -0.1583 C   0  0  0  0  0  0
    1.2782   -0.6181    1.0128 C   0  0  0  0  0  0
    1.9119   -1.7379    0.6928 N   0  0  0  0  0  0
    3.1657   -1.7762    1.0837 C   0  0  0  0  0  0
    3.6821   -0.3346    1.9103 S   0  0  0  0  0  0
    2.0805    0.2988    1.6995 C   0  0  0  0  0  0
    4.0325   -2.8221    0.8568 N   0  0  0  0  0  0
    3.5306   -4.1398    0.4266 C   0  0  0  0  0  0
    4.5257   -4.9535   -0.4234 C   0  0  0  0  0  0
    5.9138   -5.1137    0.2333 C   0  0  0  0  0  0
    6.3966   -3.7273    0.7111 C   0  0  0  0  0  0
    5.3426   -2.9457    1.5218 C   0  0  0  0  0  0
    6.9569   -5.7429   -0.7487 N   0  3  2  0  0  0
    6.4643   -6.9788   -1.5651 C   0  0  0  0  0  0
    6.1376   -8.1717   -0.6432 C   0  0  0  0  0  0
    7.4549   -7.3329   -2.6923 C   0  0  0  0  0  0
    8.3157   -5.9940   -0.0454 C   0  0  0  0  0  0
   -6.3770   -1.6046   -4.2587 H   0  0  0  0  0  0
   -5.0560   -1.7399   -3.1280 H   0  0  0  0  0  0
   -7.8780   -0.6672   -2.5252 H   0  0  0  0  0  0
   -6.3825    0.1971   -2.5879 H   0  0  0  0  0  0
   -6.8255   -2.7248    0.5529 H   0  0  0  0  0  0
   -8.1630   -2.5182   -0.5214 H   0  0  0  0  0  0
   -5.3447   -3.6073   -1.1232 H   0  0  0  0  0  0
   -6.8300   -4.5204   -1.1199 H   0  0  0  0  0  0
   -6.0357   -3.9693   -3.4497 H   0  0  0  0  0  0
   -7.6404   -3.3688   -3.1224 H   0  0  0  0  0  0
   -4.6176   -1.7753   -0.4507 H   0  0  0  0  0  0
   -7.2251   -1.1450    1.7350 H   0  0  0  0  0  0
   -8.2139    0.1702    3.3055 H   0  0  0  0  0  0
   -7.9507    1.5801    2.2948 H   0  0  0  0  0  0
   -2.5067    2.0264    0.4880 H   0  0  0  0  0  0
   -0.1808    1.6922    1.0771 H   0  0  0  0  0  0
   -0.5250   -2.4860    0.0929 H   0  0  0  0  0  0
   -2.8455   -2.1574   -0.5106 H   0  0  0  0  0  0
    1.8224    1.2769    2.0772 H   0  0  0  0  0  0
    3.2267   -4.6995    1.3126 H   0  0  0  0  0  0
    2.6277   -4.0114   -0.1719 H   0  0  0  0  0  0
    4.0887   -5.9243   -0.6544 H   0  0  0  0  0  0
    4.6195   -4.4656   -1.3954 H   0  0  0  0  0  0
    5.7945   -5.7496    1.1126 H   0  0  0  0  0  0
    7.3107   -3.8078    1.2969 H   0  0  0  0  0  0
    6.6895   -3.1149   -0.1438 H   0  0  0  0  0  0
    5.7636   -1.9576    1.7043 H   0  0  0  0  0  0
    5.1919   -3.3970    2.5037 H   0  0  0  0  0  0
    5.5628   -6.6294   -2.0644 H   0  0  0  0  0  0
    5.7208   -8.9994   -1.2180 H   0  0  0  0  0  0
    5.4023   -7.9105    0.1177 H   0  0  0  0  0  0
    7.0251   -8.5479   -0.1340 H   0  0  0  0  0  0
    6.9978   -8.0304   -3.3951 H   0  0  0  0  0  0
    8.3594   -7.8148   -2.3220 H   0  0  0  0  0  0
    7.7481   -6.4494   -3.2605 H   0  0  0  0  0  0
    8.1348   -6.6403    0.8143 H   0  0  0  0  0  0
    8.7264   -5.0331    0.2577 H   0  0  0  0  0  0
    9.0061   -6.4542   -0.7485 H   0  0  0  0  0  0
    7.1341   -5.0273   -1.4397 H   0  0  0  0  0  0
  1  2  1  0  0  0
  1  6  1  0  0  0
  1 38  1  0  0  0
  1 39  1  0  0  0
  2  3  1  0  0  0
  2 40  1  0  0  0
  2 41  1  0  0  0
  3  4  1  0  0  0
  3  7  1  0  0  0
  3  8  1  0  0  0
  4  5  1  0  0  0
  4 42  1  0  0  0
  4 43  1  0  0  0
  5  6  1  0  0  0
  5 44  1  0  0  0
  5 45  1  0  0  0
  6 46  1  0  0  0
  6 47  1  0  0  0
  7 14  1  0  0  0
  7 48  1  0  0  0
  8  9  1  0  0  0
  8 10  2  0  0  0
  9 11  1  0  0  0
  9 49  1  0  0  0
 11 12  1  0  0  0
 11 50  1  0  0  0
 11 51  1  0  0  0
 12 13  3  0  0  0
 14 15  1  0  0  0
 14 16  2  0  0  0
 15 21  1  0  0  0
 15 17  2  0  0  0
 17 18  1  0  0  0
 17 52  1  0  0  0
 18 19  2  0  0  0
 18 53  1  0  0  0
 19 20  1  0  0  0
 19 22  1  0  0  0
 20 21  2  0  0  0
 20 54  1  0  0  0
 21 55  1  0  0  0
 22 23  1  0  0  0
 22 26  2  0  0  0
 23 24  2  0  0  0
 24 25  1  0  0  0
 24 27  1  0  0  0
 25 26  1  0  0  0
 26 56  1  0  0  0
 27 28  1  0  0  0
 27 32  1  0  0  0
 28 29  1  0  0  0
 28 57  1  0  0  0
 28 58  1  0  0  0
 29 30  1  0  0  0
 29 59  1  0  0  0
 29 60  1  0  0  0
 30 31  1  0  0  0
 30 33  1  0  0  0
 30 61  1  0  0  0
 31 32  1  0  0  0
 31 62  1  0  0  0
 31 63  1  0  0  0
 32 64  1  0  0  0
 32 65  1  0  0  0
 33 34  1  0  0  0
 33 37  1  0  0  0
 33 76  1  0  0  0
 34 35  1  0  0  0
 34 36  1  0  0  0
 34 66  1  0  0  0
 35 67  1  0  0  0
 35 68  1  0  0  0
 35 69  1  0  0  0
 36 70  1  0  0  0
 36 71  1  0  0  0
 36 72  1  0  0  0
 37 73  1  0  0  0
 37 74  1  0  0  0
 37 75  1  0  0  0
M  CHG  1  33   1
M  END
> <chembl_id>
CHEMBL200596

> <chembl_pref_name>
None

> <s_m_source_file>
sdf/inactives_sanitized.sdf

> <i_m_source_file_index>
163

> <i_lp_mmshare_version>
49012

> <i_m_ct_stereo_status>
1

> <i_f3d_flags>
0

> <s_epik_input>
W0NIMl0xW0NIMl1bQ0gyXVtDSDJdW0NIMl1DMShDKD1PKVtOSF1bQ0gyXUMjTilbTkhdQyg9TyljMltjSF1bY0hdYyhbY0hdW2NIXTIpLWMzbmMoc1tjSF0zKU40W0NIMl1bQ0gyXVtDSF0oW0NIMl1bQ0gyXTQpTihbQ0gzXSlbQ0hdKFtDSDNdKVtDSDNd

> <s_epik_cmdline>
J2VwaWtfcHl0aG9uJywgJy1waHQnLCAnMC41JywgJy1waCcsICc3LjUnLCAnLW50JywgJy1tYScsICcyMDAnLCAnLWltYWUnLCAnPGluZmlsZS5tYWU+JywgJy1vbWFlJywgJzxvdXRmaWxlLm1hZT4n

> <r_lp_tautomer_probability>
1

> <r_epik_Ionization_Penalty>
  0.0087

> <r_epik_Ionization_Penalty_Charging>
  0.0061

> <r_epik_Ionization_Penalty_Neutral>
  0.0026

> <r_epik_State_Penalty>
 -0.0000

> <r_epik_Charging_Adjusted_Penalty>
0.00610028516024124

> <i_epik_Tot_Q>
1

> <i_epik_Tot_abs_Q>
1

> <s_lp_Force_Field>
OPLS3e

> <r_lp_Energy>
68.45289

> <b_lp_Chiralities_Consistent>
1

> <s_lp_Variant>
sdf/inactives_sanitized.sdf:163-1

$$$$
sdf/inactives_sanitized.sdf:164
                    3D
 Schrodinger Suite 2020-1.
 70 73  0  0  1  0            999 V2000
   -8.2718   -3.0569   -1.3509 C   0  0  0  0  0  0
   -6.7828   -2.6802   -1.1679 C   0  0  0  0  0  0
   -6.5223   -1.1966   -0.7396 C   0  0  0  0  0  0
   -7.3797   -0.9576    0.5505 C   0  0  0  0  0  0
   -8.8811   -1.3087    0.4174 C   0  0  0  0  0  0
   -9.0850   -2.7539   -0.0775 C   0  0  0  0  0  0
   -5.0756   -1.0124   -0.4903 N   0  0  0  0  0  0
   -7.0011   -0.2369   -1.8908 C   0  0  0  0  0  0
   -6.6520   -0.5543   -3.1529 N   0  0  0  0  0  0
   -7.5346    0.8436   -1.6286 O   0  0  0  0  0  0
   -6.9786    0.2432   -4.3317 C   0  0  0  0  0  0
   -8.4271    0.3015   -4.5955 C   0  0  0  0  0  0
   -9.5646    0.3462   -4.8025 N   0  0  0  0  0  0
   -4.4024    0.1092   -0.1446 C   0  0  0  0  0  0
   -2.9119   -0.0460    0.0725 C   0  0  0  0  0  0
   -4.9394    1.2131   -0.0376 O   0  0  0  0  0  0
   -2.0845    1.0838    0.0408 C   0  0  0  0  0  0
   -0.7116    0.9641    0.2363 C   0  0  0  0  0  0
   -0.1327   -0.2875    0.4700 C   0  0  0  0  0  0
   -0.9572   -1.4182    0.5067 C   0  0  0  0  0  0
   -2.3307   -1.3004    0.3127 C   0  0  0  0  0  0
    1.3501   -0.4003    0.6749 C   0  0  0  0  0  0
    1.9648   -1.5610    0.4980 N   0  0  0  0  0  0
    3.2599   -1.5151    0.7125 C   0  0  0  0  0  0
    3.8411    0.0609    1.1643 S   0  0  0  0  0  0
    2.2084    0.6376    1.0507 C   0  0  0  0  0  0
    4.1185   -2.5811    0.5846 N   0  0  0  0  0  0
    3.6353   -3.9631    0.4166 C   0  0  0  0  0  0
    4.5869   -4.8626   -0.4041 C   0  0  0  0  0  0
    5.9285   -4.8790    0.1868 N   0  0  0  0  0  0
    6.4335   -3.5040    0.1825 C   0  0  0  0  0  0
    5.5256   -2.5781    1.0225 C   0  0  0  0  0  0
    6.8631   -5.7410   -0.5492 C   0  0  0  0  0  0
    6.5809   -7.2573   -0.4040 C   0  0  0  0  0  0
    5.4440   -7.7362   -1.1176 O   0  0  0  0  0  0
    5.5667   -7.7263   -2.5333 C   0  0  0  0  0  0
   -8.6982   -2.5145   -2.1958 H   0  0  0  0  0  0
   -8.3582   -4.1151   -1.6004 H   0  0  0  0  0  0
   -6.2230   -2.9197   -2.0737 H   0  0  0  0  0  0
   -6.2962   -3.3489   -0.4552 H   0  0  0  0  0  0
   -6.9277   -1.5007    1.3824 H   0  0  0  0  0  0
   -7.2652    0.0723    0.8932 H   0  0  0  0  0  0
   -9.3774   -1.1755    1.3793 H   0  0  0  0  0  0
   -9.3706   -0.6164   -0.2685 H   0  0  0  0  0  0
   -8.7879   -3.4473    0.7109 H   0  0  0  0  0  0
  -10.1444   -2.9389   -0.2591 H   0  0  0  0  0  0
   -4.5875   -1.8716   -0.2855 H   0  0  0  0  0  0
   -6.1927   -1.4373   -3.3204 H   0  0  0  0  0  0
   -6.5940    1.2594   -4.2313 H   0  0  0  0  0  0
   -6.4947   -0.1977   -5.2032 H   0  0  0  0  0  0
   -2.4956    2.0670   -0.1409 H   0  0  0  0  0  0
   -0.1028    1.8551    0.1973 H   0  0  0  0  0  0
   -0.5398   -2.3977    0.6901 H   0  0  0  0  0  0
   -2.9307   -2.1979    0.3562 H   0  0  0  0  0  0
    1.9714    1.6703    1.2597 H   0  0  0  0  0  0
    3.4727   -4.3925    1.4063 H   0  0  0  0  0  0
    2.6524   -3.9661   -0.0552 H   0  0  0  0  0  0
    4.1666   -5.8663   -0.4075 H   0  0  0  0  0  0
    4.6235   -4.5316   -1.4438 H   0  0  0  0  0  0
    7.4392   -3.4830    0.6051 H   0  0  0  0  0  0
    6.5159   -3.1247   -0.8385 H   0  0  0  0  0  0
    5.9394   -1.5712    0.9925 H   0  0  0  0  0  0
    5.5593   -2.8665    2.0743 H   0  0  0  0  0  0
    6.8964   -5.4492   -1.5995 H   0  0  0  0  0  0
    7.8688   -5.5691   -0.1622 H   0  0  0  0  0  0
    7.4595   -7.8275   -0.7109 H   0  0  0  0  0  0
    6.4326   -7.4965    0.6498 H   0  0  0  0  0  0
    4.6827   -8.1880   -2.9728 H   0  0  0  0  0  0
    6.4369   -8.2948   -2.8644 H   0  0  0  0  0  0
    5.6363   -6.7131   -2.9291 H   0  0  0  0  0  0
  1  2  1  0  0  0
  1  6  1  0  0  0
  1 37  1  0  0  0
  1 38  1  0  0  0
  2  3  1  0  0  0
  2 39  1  0  0  0
  2 40  1  0  0  0
  3  4  1  0  0  0
  3  7  1  0  0  0
  3  8  1  0  0  0
  4  5  1  0  0  0
  4 41  1  0  0  0
  4 42  1  0  0  0
  5  6  1  0  0  0
  5 43  1  0  0  0
  5 44  1  0  0  0
  6 45  1  0  0  0
  6 46  1  0  0  0
  7 14  1  0  0  0
  7 47  1  0  0  0
  8  9  1  0  0  0
  8 10  2  0  0  0
  9 11  1  0  0  0
  9 48  1  0  0  0
 11 12  1  0  0  0
 11 49  1  0  0  0
 11 50  1  0  0  0
 12 13  3  0  0  0
 14 15  1  0  0  0
 14 16  2  0  0  0
 15 21  2  0  0  0
 15 17  1  0  0  0
 17 18  2  0  0  0
 17 51  1  0  0  0
 18 19  1  0  0  0
 18 52  1  0  0  0
 19 20  2  0  0  0
 19 22  1  0  0  0
 20 21  1  0  0  0
 20 53  1  0  0  0
 21 54  1  0  0  0
 22 23  1  0  0  0
 22 26  2  0  0  0
 23 24  2  0  0  0
 24 25  1  0  0  0
 24 27  1  0  0  0
 25 26  1  0  0  0
 26 55  1  0  0  0
 27 28  1  0  0  0
 27 32  1  0  0  0
 28 29  1  0  0  0
 28 56  1  0  0  0
 28 57  1  0  0  0
 29 30  1  0  0  0
 29 58  1  0  0  0
 29 59  1  0  0  0
 30 31  1  0  0  0
 30 33  1  0  0  0
 31 32  1  0  0  0
 31 60  1  0  0  0
 31 61  1  0  0  0
 32 62  1  0  0  0
 32 63  1  0  0  0
 33 34  1  0  0  0
 33 64  1  0  0  0
 33 65  1  0  0  0
 34 35  1  0  0  0
 34 66  1  0  0  0
 34 67  1  0  0  0
 35 36  1  0  0  0
 36 68  1  0  0  0
 36 69  1  0  0  0
 36 70  1  0  0  0
M  END
> <chembl_id>
CHEMBL200602

> <chembl_pref_name>
None

> <s_m_source_file>
sdf/inactives_sanitized.sdf

> <i_m_source_file_index>
164

> <i_lp_mmshare_version>
49012

> <i_m_ct_stereo_status>
1

> <i_f3d_flags>
0

> <s_epik_input>
W0NIMl0xW0NIMl1bQ0gyXVtDSDJdW0NIMl1DMShDKD1PKVtOSF1bQ0gyXUMjTilbTkhdQyg9TyljMltjSF1bY0hdYyhbY0hdW2NIXTIpLWMzbmMoc1tjSF0zKU40W0NIMl1bQ0gyXU4oW0NIMl1bQ0gyXTQpW0NIMl1bQ0gyXU9bQ0gzXQ==

> <s_epik_cmdline>
J2VwaWtfcHl0aG9uJywgJy1waHQnLCAnMC41JywgJy1waCcsICc3LjUnLCAnLW50JywgJy1tYScsICcyMDAnLCAnLWltYWUnLCAnPGluZmlsZS5tYWU+JywgJy1vbWFlJywgJzxvdXRmaWxlLm1hZT4n

> <r_lp_tautomer_probability>
1

> <r_epik_Ionization_Penalty>
  0.2128

> <r_epik_Ionization_Penalty_Charging>
  0.0000

> <r_epik_Ionization_Penalty_Neutral>
  0.2128

> <r_epik_State_Penalty>
 -0.0000

> <r_epik_Charging_Adjusted_Penalty>
0

> <i_epik_Tot_Q>
0

> <i_epik_Tot_abs_Q>
0

> <s_lp_Force_Field>
OPLS3e

> <r_lp_Energy>
68.321334

> <b_lp_Chiralities_Consistent>
1

> <s_lp_Variant>
sdf/inactives_sanitized.sdf:164-1

$$$$
sdf/inactives_sanitized.sdf:165
                    3D
 Schrodinger Suite 2020-1.
 80 83  0  0  1  0            999 V2000
    1.9838    0.7468    5.2929 S   0  0  0  0  0  0
   -3.8417    2.0857   -1.8035 N   0  0  0  0  0  0
   -4.3517    2.6260   -2.9305 C   0  0  0  0  0  0
   -2.6442    2.3512   -1.2315 C   0  0  0  0  0  0
    1.4448   -0.3498    3.9720 C   0  0  0  0  0  0
   -0.4788    0.3129   -0.0283 C   0  0  0  0  0  0
   -1.1055    1.3807    0.4998 N   0  0  0  0  0  0
   -2.4817    1.7836    0.1999 C   0  0  1  0  0  0
   -6.4219    2.7838   -4.1159 N   0  0  0  0  0  0
   -5.6636    2.3359   -3.0228 N   0  0  0  0  0  0
    1.3142    0.1007    2.7142 C   0  0  0  0  0  0
    2.1689    2.1020    4.7584 O   0  0  0  0  0  0
    1.1077    0.5230    6.4486 O   0  0  0  0  0  0
    3.6056    0.1083    5.7078 C   0  0  0  0  0  0
   -3.7336    3.3303   -3.7377 O   0  0  0  0  0  0
   -1.7448    3.0494   -1.7118 O   0  0  0  0  0  0
   -1.0103   -0.4688   -0.8216 O   0  0  0  0  0  0
    0.9843    0.0979    0.4324 C   0  0  1  0  0  0
   -2.9397    2.7967    1.2833 C   0  0  0  0  0  0
    0.9096   -0.6758    1.6308 N   0  5  0  0  0  0
   -8.6171    2.6824   -5.9050 O   0  0  0  0  0  0
    1.8400   -0.6409   -0.6385 C   0  0  0  0  0  0
   -7.7651    3.1757   -3.6824 C   0  0  0  0  0  0
   -6.4819    1.7755   -5.1799 C   0  0  0  0  0  0
    3.3410   -0.7883   -0.2923 C   0  0  0  0  0  0
   -4.4092    3.1921    1.2341 C   0  0  0  0  0  0
    4.0710    0.5383   -0.1208 C   0  0  0  0  0  0
   -8.5813    3.6833   -4.8907 C   0  0  0  0  0  0
   -7.3194    2.3090   -6.3619 C   0  0  0  0  0  0
    3.7329   -0.9026    6.6640 C   0  0  0  0  0  0
    4.7371    0.6205    5.0676 C   0  0  0  0  0  0
   -4.8210    4.3332    0.5112 C   0  0  0  0  0  0
   -5.3905    2.3195    1.7504 C   0  0  0  0  0  0
    4.4096    0.9908    1.1579 C   0  0  0  0  0  0
    4.3957    1.3048   -1.2434 C   0  0  0  0  0  0
    5.9973    0.1200    5.3831 C   0  0  0  0  0  0
    4.9944   -1.4008    6.9796 C   0  0  0  0  0  0
    5.0526    2.5227   -1.0873 C   0  0  0  0  0  0
   -6.1731    4.6115    0.3617 C   0  0  0  0  0  0
   -6.7377    2.6175    1.5936 C   0  0  0  0  0  0
    5.0650    2.2093    1.3136 C   0  0  0  0  0  0
    6.1203   -0.8878    6.3378 C   0  0  0  0  0  0
   -7.1267    3.7599    0.9051 C   0  0  0  0  0  0
    5.3829    2.9698    0.1904 C   0  0  0  0  0  0
   -4.4632    1.4949   -1.2715 H   0  0  0  0  0  0
    1.2443   -1.3734    4.2521 H   0  0  0  0  0  0
   -0.6040    1.9704    1.1479 H   0  0  0  0  0  0
   -3.1139    0.8979    0.3016 H   0  0  0  0  0  0
   -6.0710    1.5341   -2.5638 H   0  0  0  0  0  0
    1.5433    1.1434    2.5400 H   0  0  0  0  0  0
    1.4173    1.1024    0.4743 H   0  0  0  0  0  0
   -2.7470    2.3778    2.2728 H   0  0  0  0  0  0
   -2.3319    3.7026    1.2345 H   0  0  0  0  0  0
    1.4309   -1.6302   -0.8549 H   0  0  0  0  0  0
    1.7663   -0.0840   -1.5748 H   0  0  0  0  0  0
   -8.2753    2.3305   -3.2163 H   0  0  0  0  0  0
   -7.6926    3.9627   -2.9299 H   0  0  0  0  0  0
   -5.4729    1.5397   -5.5222 H   0  0  0  0  0  0
   -6.9179    0.8496   -4.8001 H   0  0  0  0  0  0
    3.4599   -1.3937    0.6079 H   0  0  0  0  0  0
    3.8400   -1.3580   -1.0775 H   0  0  0  0  0  0
   -9.6034    3.9044   -4.5831 H   0  0  0  0  0  0
   -8.1658    4.6126   -5.2853 H   0  0  0  0  0  0
   -7.4262    1.5354   -7.1225 H   0  0  0  0  0  0
   -6.8262    3.1554   -6.8438 H   0  0  0  0  0  0
    2.8605   -1.3040    7.1587 H   0  0  0  0  0  0
    4.6429    1.4004    4.3267 H   0  0  0  0  0  0
   -4.0869    4.9856    0.0610 H   0  0  0  0  0  0
   -5.0968    1.4150    2.2632 H   0  0  0  0  0  0
    4.1608    0.4039    2.0301 H   0  0  0  0  0  0
    4.1353    0.9603   -2.2337 H   0  0  0  0  0  0
    6.8747    0.5111    4.8894 H   0  0  0  0  0  0
    5.0995   -2.1824    7.7176 H   0  0  0  0  0  0
    5.3028    3.1187   -1.9526 H   0  0  0  0  0  0
   -6.4843    5.4872   -0.1889 H   0  0  0  0  0  0
   -7.4861    1.9522    1.9985 H   0  0  0  0  0  0
    5.3244    2.5641    2.3001 H   0  0  0  0  0  0
    7.0981   -1.2759    6.5822 H   0  0  0  0  0  0
   -8.1766    3.9810    0.7814 H   0  0  0  0  0  0
    5.8902    3.9155    0.3116 H   0  0  0  0  0  0
  1  5  1  0  0  0
  1 12  2  0  0  0
  1 13  2  0  0  0
  1 14  1  0  0  0
  2  4  1  0  0  0
  2  3  1  0  0  0
  2 45  1  0  0  0
  3 10  1  0  0  0
  3 15  2  0  0  0
  4  8  1  0  0  0
  4 16  2  0  0  0
  5 11  2  0  0  0
  5 46  1  0  0  0
  6 18  1  0  0  0
  6  7  1  0  0  0
  6 17  2  0  0  0
  7  8  1  0  0  0
  7 47  1  0  0  0
  8 19  1  0  0  0
  8 48  1  0  0  0
  9 10  1  0  0  0
  9 23  1  0  0  0
  9 24  1  0  0  0
 10 49  1  0  0  0
 11 20  1  0  0  0
 11 50  1  0  0  0
 14 30  2  0  0  0
 14 31  1  0  0  0
 18 20  1  0  0  0
 18 22  1  0  0  0
 18 51  1  0  0  0
 19 26  1  0  0  0
 19 52  1  0  0  0
 19 53  1  0  0  0
 21 29  1  0  0  0
 21 28  1  0  0  0
 22 25  1  0  0  0
 22 54  1  0  0  0
 22 55  1  0  0  0
 23 28  1  0  0  0
 23 56  1  0  0  0
 23 57  1  0  0  0
 24 29  1  0  0  0
 24 58  1  0  0  0
 24 59  1  0  0  0
 25 27  1  0  0  0
 25 60  1  0  0  0
 25 61  1  0  0  0
 26 32  2  0  0  0
 26 33  1  0  0  0
 27 34  2  0  0  0
 27 35  1  0  0  0
 28 62  1  0  0  0
 28 63  1  0  0  0
 29 64  1  0  0  0
 29 65  1  0  0  0
 30 37  1  0  0  0
 30 66  1  0  0  0
 31 36  2  0  0  0
 31 67  1  0  0  0
 32 39  1  0  0  0
 32 68  1  0  0  0
 33 40  2  0  0  0
 33 69  1  0  0  0
 34 41  1  0  0  0
 34 70  1  0  0  0
 35 38  2  0  0  0
 35 71  1  0  0  0
 36 42  1  0  0  0
 36 72  1  0  0  0
 37 42  2  0  0  0
 37 73  1  0  0  0
 38 44  1  0  0  0
 38 74  1  0  0  0
 39 43  2  0  0  0
 39 75  1  0  0  0
 40 43  1  0  0  0
 40 76  1  0  0  0
 41 44  2  0  0  0
 41 77  1  0  0  0
 42 78  1  0  0  0
 43 79  1  0  0  0
 44 80  1  0  0  0
M  CHG  1  20  -1
M  END
> <chembl_id>
CHEMBL3142835

> <chembl_pref_name>
None

> <i_m_ct_stereo_status>
1

> <s_m_source_file>
sdf/inactives_sanitized.sdf

> <i_m_source_file_index>
165

> <i_lp_mmshare_version>
49012

> <i_f3d_flags>
0

> <s_epik_input>
W2NIXTFbY0hdW2NIXVtjSF1bY0hdYzFTKD1PKSg9TykvW0NIXT1bQ0hdL1tOSF1bQ0BASF0oW0NIMl1bQ0gyXWMyW2NIXVtjSF1bY0hdW2NIXVtjSF0yKUMoPU8pW05IXVtDQEBIXShbQ0gyXWMzW2NIXVtjSF1bY0hdW2NIXVtjSF0zKUMoPU8pW05IXUMoPU8pW05IXU40W0NIMl1bQ0gyXU9bQ0gyXVtDSDJdNA==

> <s_epik_cmdline>
J2VwaWtfcHl0aG9uJywgJy1waHQnLCAnMC41JywgJy1waCcsICc3LjUnLCAnLW50JywgJy1tYScsICcyMDAnLCAnLWltYWUnLCAnPGluZmlsZS5tYWU+JywgJy1vbWFlJywgJzxvdXRmaWxlLm1hZT4n

> <r_lp_tautomer_probability>
1

> <r_epik_Ionization_Penalty>
  0.0055

> <r_epik_Ionization_Penalty_Charging>
  0.0000

> <r_epik_Ionization_Penalty_Neutral>
  0.0055

> <r_epik_State_Penalty>
 -0.0000

> <r_epik_Charging_Adjusted_Penalty>
0

> <i_epik_Tot_Q>
-1

> <i_epik_Tot_abs_Q>
1

> <s_epik_Chemistry_Notes>
This compound has an imine and may undergo hydrolysis.

> <s_lp_Force_Field>
OPLS3e

> <r_lp_Energy>
40.195828

> <b_lp_Chiralities_Consistent>
1

> <s_lp_Variant>
sdf/inactives_sanitized.sdf:165-1

$$$$
sdf/inactives_sanitized.sdf:166
                    3D
 Schrodinger Suite 2020-1.
 79 80  0  0  1  0            999 V2000
   -1.1289    1.0979   -0.5306 C   0  0  0  0  0  0
   -0.2568    0.5720    0.3517 N   0  0  0  0  0  0
   -0.7808    1.6363   -1.5834 O   0  0  0  0  0  0
    1.1975    0.5202    0.1956 C   0  0  2  0  0  0
    1.6424   -0.3647   -0.9839 C   0  0  0  0  0  0
    1.0432   -1.4143   -1.2204 O   0  0  0  0  0  0
    2.7039    0.0810   -1.6737 N   0  0  0  0  0  0
    3.3373   -0.6179   -2.7929 C   0  0  2  0  0  0
    4.8538   -0.7343   -2.5462 C   0  0  0  0  0  0
    5.4281   -1.8933   -2.8797 N   0  0  0  0  0  0
    5.4900    0.2171   -2.0924 O   0  0  0  0  0  0
    1.8231    0.0778    1.5397 C   0  0  0  0  0  0
    3.0509    0.1517   -4.1015 C   0  0  0  0  0  0
    3.3306   -0.1278    1.5419 C   0  0  0  0  0  0
    3.8804   -1.4119    1.3340 C   0  0  0  0  0  0
    5.2562   -1.5710    1.2329 C   0  0  0  0  0  0
    6.0956   -0.4670    1.3109 C   0  0  0  0  0  0
    5.5675    0.8069    1.4798 C   0  0  0  0  0  0
    4.1944    0.9872    1.5831 C   0  0  0  0  0  0
    1.5623    0.1710   -4.4929 C   0  0  0  0  0  0
    1.3112    0.8690   -5.8363 C   0  0  0  0  0  0
   -0.1768    0.8919   -6.2118 C   0  0  0  0  0  0
   -0.3929    1.5587   -7.5071 N   0  3  0  0  0  0
   -2.6432    1.0086   -0.1961 C   0  0  2  0  0  0
   -3.4501    2.2705   -0.6187 C   0  0  0  0  0  0
   -4.9847    2.2262   -0.4207 C   0  0  0  0  0  0
   -2.9502    0.6792    1.2106 N   0  0  0  0  0  0
   -3.0353   -0.6369    1.6506 C   0  0  0  0  0  0
   -3.3479   -0.6332    2.9595 O   0  0  0  0  0  0
   -2.8474   -1.6502    0.9726 O   0  0  0  0  0  0
   -3.5065   -1.8516    3.6749 C   0  0  0  0  0  0
   -3.8951   -1.5450    5.1092 C   0  0  0  0  0  0
   -5.2314   -1.2904    5.4271 C   0  0  0  0  0  0
   -5.5887   -1.0040    6.7422 C   0  0  0  0  0  0
   -4.6087   -0.9747    7.7326 C   0  0  0  0  0  0
   -3.2744   -1.2289    7.4203 C   0  0  0  0  0  0
   -2.9161   -1.5145    6.1052 C   0  0  0  0  0  0
   -5.6811    1.0806   -1.1615 C   0  0  0  0  0  0
   -5.6424   -0.0663   -0.7217 O   0  0  0  0  0  0
   -6.3424    1.3923   -2.2789 N   0  0  0  0  0  0
   -0.6186    0.1347    1.1868 H   0  0  0  0  0  0
    1.5356    1.5385   -0.0081 H   0  0  0  0  0  0
    3.1461    0.9448   -1.3941 H   0  0  0  0  0  0
    2.9233   -1.6247   -2.8857 H   0  0  0  0  0  0
    4.8749   -2.6499   -3.2546 H   0  0  0  0  0  0
    6.4212   -2.0207   -2.7495 H   0  0  0  0  0  0
    1.5974    0.8331    2.2940 H   0  0  0  0  0  0
    1.3460   -0.8400    1.8876 H   0  0  0  0  0  0
    3.4234    1.1747   -4.0226 H   0  0  0  0  0  0
    3.6114   -0.3131   -4.9144 H   0  0  0  0  0  0
    3.2341   -2.2732    1.2470 H   0  0  0  0  0  0
    5.6742   -2.5553    1.0819 H   0  0  0  0  0  0
    7.1643   -0.5979    1.2254 H   0  0  0  0  0  0
    6.2265    1.6616    1.5202 H   0  0  0  0  0  0
    3.7912    1.9836    1.6913 H   0  0  0  0  0  0
    1.1848   -0.8514   -4.5353 H   0  0  0  0  0  0
    0.9839    0.6781   -3.7199 H   0  0  0  0  0  0
    1.6924    1.8902   -5.7892 H   0  0  0  0  0  0
    1.8798    0.3645   -6.6189 H   0  0  0  0  0  0
   -0.5686   -0.1243   -6.2715 H   0  0  0  0  0  0
   -0.7525    1.4146   -5.4469 H   0  0  0  0  0  0
   -1.3789    1.5582   -7.7271 H   0  0  0  0  0  0
    0.1117    1.0649   -8.2294 H   0  0  0  0  0  0
   -3.0063    0.1985   -0.8318 H   0  0  0  0  0  0
   -3.0673    3.1350   -0.0737 H   0  0  0  0  0  0
   -3.2614    2.4882   -1.6715 H   0  0  0  0  0  0
   -5.2196    2.1352    0.6404 H   0  0  0  0  0  0
   -5.4166    3.1764   -0.7378 H   0  0  0  0  0  0
   -3.0903    1.4332    1.8668 H   0  0  0  0  0  0
   -4.2781   -2.4716    3.2149 H   0  0  0  0  0  0
   -2.5814   -2.4305    3.6571 H   0  0  0  0  0  0
   -5.9903   -1.3120    4.6580 H   0  0  0  0  0  0
   -6.6203   -0.8050    6.9929 H   0  0  0  0  0  0
   -4.8859   -0.7523    8.7526 H   0  0  0  0  0  0
   -2.5218   -1.2037    8.1945 H   0  0  0  0  0  0
   -1.8813   -1.7092    5.8629 H   0  0  0  0  0  0
   -6.3672    2.3452   -2.6114 H   0  0  0  0  0  0
   -6.8290    0.6742   -2.7959 H   0  0  0  0  0  0
   -0.0608    2.5114   -7.4571 H   0  0  0  0  0  0
  1  2  1  0  0  0
  1  3  2  0  0  0
  1 24  1  0  0  0
  2  4  1  0  0  0
  2 41  1  0  0  0
  4  5  1  0  0  0
  4 12  1  0  0  0
  4 42  1  0  0  0
  5  6  2  0  0  0
  5  7  1  0  0  0
  7  8  1  0  0  0
  7 43  1  0  0  0
  8  9  1  0  0  0
  8 13  1  0  0  0
  8 44  1  0  0  0
  9 10  1  0  0  0
  9 11  2  0  0  0
 10 45  1  0  0  0
 10 46  1  0  0  0
 12 14  1  0  0  0
 12 47  1  0  0  0
 12 48  1  0  0  0
 13 20  1  0  0  0
 13 49  1  0  0  0
 13 50  1  0  0  0
 14 15  2  0  0  0
 14 19  1  0  0  0
 15 16  1  0  0  0
 15 51  1  0  0  0
 16 17  2  0  0  0
 16 52  1  0  0  0
 17 18  1  0  0  0
 17 53  1  0  0  0
 18 19  2  0  0  0
 18 54  1  0  0  0
 19 55  1  0  0  0
 20 21  1  0  0  0
 20 56  1  0  0  0
 20 57  1  0  0  0
 21 22  1  0  0  0
 21 58  1  0  0  0
 21 59  1  0  0  0
 22 23  1  0  0  0
 22 60  1  0  0  0
 22 61  1  0  0  0
 23 62  1  0  0  0
 23 63  1  0  0  0
 23 79  1  0  0  0
 24 25  1  0  0  0
 24 27  1  0  0  0
 24 64  1  0  0  0
 25 26  1  0  0  0
 25 65  1  0  0  0
 25 66  1  0  0  0
 26 38  1  0  0  0
 26 67  1  0  0  0
 26 68  1  0  0  0
 27 28  1  0  0  0
 27 69  1  0  0  0
 28 29  1  0  0  0
 28 30  2  0  0  0
 29 31  1  0  0  0
 31 32  1  0  0  0
 31 70  1  0  0  0
 31 71  1  0  0  0
 32 33  2  0  0  0
 32 37  1  0  0  0
 33 34  1  0  0  0
 33 72  1  0  0  0
 34 35  2  0  0  0
 34 73  1  0  0  0
 35 36  1  0  0  0
 35 74  1  0  0  0
 36 37  2  0  0  0
 36 75  1  0  0  0
 37 76  1  0  0  0
 38 39  2  0  0  0
 38 40  1  0  0  0
 40 77  1  0  0  0
 40 78  1  0  0  0
M  CHG  1  23   1
M  END
> <chembl_id>
CHEMBL2382084

> <chembl_pref_name>
None

> <i_m_ct_stereo_status>
1

> <s_m_source_file>
sdf/inactives_sanitized.sdf

> <i_m_source_file_index>
166

> <i_lp_mmshare_version>
49012

> <i_f3d_flags>
0

> <s_epik_input>
W05IMl1bQ0gyXVtDSDJdW0NIMl1bQ0gyXVtDQEBIXShDKD1PKVtOSDJdKVtOSF1DKD1PKVtDQEhdKFtDSDJdYzFbY0hdW2NIXVtjSF1bY0hdW2NIXTEpW05IXUMoPU8pW0NASF0oW0NIMl1bQ0gyXUMoPU8pW05IMl0pW05IXUMoPU8pT1tDSDJdYzJbY0hdW2NIXVtjSF1bY0hdW2NIXTI=

> <s_epik_cmdline>
J2VwaWtfcHl0aG9uJywgJy1waHQnLCAnMC41JywgJy1waCcsICc3LjUnLCAnLW50JywgJy1tYScsICcyMDAnLCAnLWltYWUnLCAnPGluZmlsZS5tYWU+JywgJy1vbWFlJywgJzxvdXRmaWxlLm1hZT4n

> <r_lp_tautomer_probability>
1

> <r_epik_Ionization_Penalty>
  0.0014

> <r_epik_Ionization_Penalty_Charging>
  0.0014

> <r_epik_Ionization_Penalty_Neutral>
  0.0000

> <r_epik_State_Penalty>
 -0.0000

> <r_epik_Charging_Adjusted_Penalty>
0.00140340395202934

> <i_epik_Tot_Q>
1

> <i_epik_Tot_abs_Q>
1

> <s_epik_Chemistry_Notes>
This compound has an ester and may undergo hydrolysis at high or low pH.

> <s_lp_Force_Field>
OPLS3e

> <r_lp_Energy>
19.931939

> <b_lp_Chiralities_Consistent>
1

> <s_lp_Variant>
sdf/inactives_sanitized.sdf:166-1

$$$$
sdf/inactives_sanitized.sdf:167
                    3D
 Schrodinger Suite 2020-1.
 72 74  0  0  1  0            999 V2000
    1.9491    2.2037   -6.0647 C   0  0  0  0  0  0
    1.1073    3.2344   -5.6520 C   0  0  0  0  0  0
   -0.1295    2.9312   -5.0888 C   0  0  0  0  0  0
   -0.5176    1.5978   -4.9392 C   0  0  0  0  0  0
    0.3326    0.5678   -5.3504 C   0  0  0  0  0  0
    1.5693    0.8716   -5.9135 C   0  0  0  0  0  0
   -1.8715    1.2647   -4.3223 C   0  0  0  0  0  0
   -1.7162    0.5545   -3.0942 O   0  0  0  0  0  0
   -1.3433    1.1800   -1.9566 C   0  0  0  0  0  0
   -0.9824    0.2197   -1.0189 N   0  0  0  0  0  0
   -1.2915    2.4035   -1.8105 O   0  0  0  0  0  0
   -0.4459    0.5887    0.3083 C   0  0  2  0  0  0
    1.0782    0.8935    0.3337 C   0  0  0  0  0  0
    1.6526    0.9779    1.4203 O   0  0  0  0  0  0
    1.7014    1.0880   -0.8453 N   0  0  0  0  0  0
    3.1071    1.4602   -1.0308 C   0  0  2  0  0  0
    3.3994    2.8729   -0.4704 C   0  0  0  0  0  0
    4.4841    3.0019    0.2986 N   0  0  0  0  0  0
    2.6703    3.8203   -0.7613 O   0  0  0  0  0  0
   -0.8858   -0.4151    1.4136 C   0  0  0  0  0  0
    3.4253    1.3651   -2.5456 C   0  0  0  0  0  0
   -2.3909   -0.6907    1.4567 C   0  0  0  0  0  0
   -2.8498   -2.0070    1.5277 C   0  0  0  0  0  0
   -4.2159   -2.2707    1.5677 C   0  0  0  0  0  0
   -5.1508   -1.2271    1.5459 C   0  0  0  0  0  0
   -4.6781    0.0907    1.4877 C   0  0  0  0  0  0
   -3.3131    0.3588    1.4452 C   0  0  0  0  0  0
    4.9264    1.4242   -2.8866 C   0  0  0  0  0  0
    5.1880    1.3493   -4.3974 C   0  0  0  0  0  0
    6.6838    1.3603   -4.7403 C   0  0  0  0  0  0
    6.8995    1.3171   -6.1968 N   0  3  0  0  0  0
   -6.6176   -1.5135    1.5863 C   0  0  0  0  0  0
   -7.4985   -0.6546    2.2600 C   0  0  0  0  0  0
   -8.8646   -0.9213    2.2992 C   0  0  0  0  0  0
   -9.3646   -2.0522    1.6611 C   0  0  0  0  0  0
   -8.5090   -2.9170    0.9859 C   0  0  0  0  0  0
   -7.1435   -2.6478    0.9504 C   0  0  0  0  0  0
    2.9053    2.4409   -6.5063 H   0  0  0  0  0  0
    1.4115    4.2641   -5.7694 H   0  0  0  0  0  0
   -0.7811    3.7312   -4.7672 H   0  0  0  0  0  0
    0.0357   -0.4645   -5.2336 H   0  0  0  0  0  0
    2.2294    0.0788   -6.2329 H   0  0  0  0  0  0
   -2.4666    2.1686   -4.1785 H   0  0  0  0  0  0
   -2.4254    0.6387   -5.0221 H   0  0  0  0  0  0
   -1.0336   -0.7581   -1.2645 H   0  0  0  0  0  0
   -0.8989    1.5392    0.5973 H   0  0  0  0  0  0
    1.1563    1.0250   -1.6928 H   0  0  0  0  0  0
    3.7064    0.7182   -0.4979 H   0  0  0  0  0  0
    5.0567    2.1995    0.5162 H   0  0  0  0  0  0
    4.7246    3.9034    0.6845 H   0  0  0  0  0  0
   -0.3584   -1.3570    1.2493 H   0  0  0  0  0  0
   -0.5830   -0.0692    2.4034 H   0  0  0  0  0  0
    3.0318    0.4260   -2.9399 H   0  0  0  0  0  0
    2.8973    2.1519   -3.0886 H   0  0  0  0  0  0
   -2.1519   -2.8315    1.5498 H   0  0  0  0  0  0
   -4.5420   -3.2986    1.6274 H   0  0  0  0  0  0
   -5.3676    0.9216    1.4646 H   0  0  0  0  0  0
   -2.9821    1.3858    1.4041 H   0  0  0  0  0  0
    5.3597    2.3462   -2.4978 H   0  0  0  0  0  0
    5.4435    0.6061   -2.3836 H   0  0  0  0  0  0
    4.7229    0.4504   -4.8046 H   0  0  0  0  0  0
    4.7011    2.1953   -4.8839 H   0  0  0  0  0  0
    7.1569    2.2598   -4.3444 H   0  0  0  0  0  0
    7.1841    0.5048   -4.2849 H   0  0  0  0  0  0
    7.8906    1.3239   -6.3922 H   0  0  0  0  0  0
    6.4688    2.1234   -6.6266 H   0  0  0  0  0  0
   -7.1283    0.2229    2.7698 H   0  0  0  0  0  0
   -9.5328   -0.2551    2.8247 H   0  0  0  0  0  0
  -10.4240   -2.2605    1.6901 H   0  0  0  0  0  0
   -8.9023   -3.7922    0.4902 H   0  0  0  0  0  0
   -6.4973   -3.3257    0.4123 H   0  0  0  0  0  0
    6.4895    0.4752   -6.5758 H   0  0  0  0  0  0
  1  2  2  0  0  0
  1  6  1  0  0  0
  1 38  1  0  0  0
  2  3  1  0  0  0
  2 39  1  0  0  0
  3  4  2  0  0  0
  3 40  1  0  0  0
  4  5  1  0  0  0
  4  7  1  0  0  0
  5  6  2  0  0  0
  5 41  1  0  0  0
  6 42  1  0  0  0
  7  8  1  0  0  0
  7 43  1  0  0  0
  7 44  1  0  0  0
  8  9  1  0  0  0
  9 10  1  0  0  0
  9 11  2  0  0  0
 10 12  1  0  0  0
 10 45  1  0  0  0
 12 13  1  0  0  0
 12 20  1  0  0  0
 12 46  1  0  0  0
 13 14  2  0  0  0
 13 15  1  0  0  0
 15 16  1  0  0  0
 15 47  1  0  0  0
 16 17  1  0  0  0
 16 21  1  0  0  0
 16 48  1  0  0  0
 17 18  1  0  0  0
 17 19  2  0  0  0
 18 49  1  0  0  0
 18 50  1  0  0  0
 20 22  1  0  0  0
 20 51  1  0  0  0
 20 52  1  0  0  0
 21 28  1  0  0  0
 21 53  1  0  0  0
 21 54  1  0  0  0
 22 23  2  0  0  0
 22 27  1  0  0  0
 23 24  1  0  0  0
 23 55  1  0  0  0
 24 25  2  0  0  0
 24 56  1  0  0  0
 25 26  1  0  0  0
 25 32  1  0  0  0
 26 27  2  0  0  0
 26 57  1  0  0  0
 27 58  1  0  0  0
 28 29  1  0  0  0
 28 59  1  0  0  0
 28 60  1  0  0  0
 29 30  1  0  0  0
 29 61  1  0  0  0
 29 62  1  0  0  0
 30 31  1  0  0  0
 30 63  1  0  0  0
 30 64  1  0  0  0
 31 65  1  0  0  0
 31 66  1  0  0  0
 31 72  1  0  0  0
 32 33  2  0  0  0
 32 37  1  0  0  0
 33 34  1  0  0  0
 33 67  1  0  0  0
 34 35  2  0  0  0
 34 68  1  0  0  0
 35 36  1  0  0  0
 35 69  1  0  0  0
 36 37  2  0  0  0
 36 70  1  0  0  0
 37 71  1  0  0  0
M  CHG  1  31   1
M  END
> <chembl_id>
CHEMBL2381998

> <chembl_pref_name>
None

> <i_m_ct_stereo_status>
1

> <s_m_source_file>
sdf/inactives_sanitized.sdf

> <i_m_source_file_index>
167

> <i_lp_mmshare_version>
49012

> <i_f3d_flags>
0

> <s_epik_input>
W2NIXTFbY0hdW2NIXVtjSF1bY0hdYzFbQ0gyXU9DKD1PKVtOSF1bQ0BIXShDKD1PKVtOSF1bQ0BIXShDKD1PKVtOSDJdKVtDSDJdW0NIMl1bQ0gyXVtDSDJdW05IMl0pW0NIMl1jMltjSF1bY0hdYyhbY0hdW2NIXTIpLWMzW2NIXVtjSF1bY0hdW2NIXVtjSF0z

> <s_epik_cmdline>
J2VwaWtfcHl0aG9uJywgJy1waHQnLCAnMC41JywgJy1waCcsICc3LjUnLCAnLW50JywgJy1tYScsICcyMDAnLCAnLWltYWUnLCAnPGluZmlsZS5tYWU+JywgJy1vbWFlJywgJzxvdXRmaWxlLm1hZT4n

> <r_lp_tautomer_probability>
1

> <r_epik_Ionization_Penalty>
  0.0014

> <r_epik_Ionization_Penalty_Charging>
  0.0014

> <r_epik_Ionization_Penalty_Neutral>
  0.0000

> <r_epik_State_Penalty>
 -0.0000

> <r_epik_Charging_Adjusted_Penalty>
0.00140340395202934

> <i_epik_Tot_Q>
1

> <i_epik_Tot_abs_Q>
1

> <s_epik_Chemistry_Notes>
This compound has an ester and may undergo hydrolysis at high or low pH.

> <s_lp_Force_Field>
OPLS3e

> <r_lp_Energy>
36.431703

> <b_lp_Chiralities_Consistent>
1

> <s_lp_Variant>
sdf/inactives_sanitized.sdf:167-1

$$$$
sdf/inactives_sanitized.sdf:168
                    3D
 Schrodinger Suite 2020-1.
 78 80  0  0  1  0            999 V2000
   -1.0378    1.2139    0.0095 C   0  0  0  0  0  0
   -0.3420   -0.1538   -0.0209 C   0  0  2  0  0  0
    1.9279    0.6884   -0.8387 C   0  0  0  0  0  0
    1.1327   -0.0126   -0.0031 N   0  0  0  0  0  0
   -0.7355    2.1206    1.2754 C   0  0  0  0  0  0
    4.3003    2.8007   -0.0448 C   0  0  0  0  0  0
    3.4501    0.5289   -0.6091 C   0  0  2  0  0  0
    4.1921    1.7541   -0.9522 N   0  0  0  0  0  0
   -1.0993    3.4016    1.0787 N   0  0  0  0  0  0
   -1.8083    1.6089   -0.8712 O   0  0  0  0  0  0
   -0.8088   -1.0334   -1.2172 C   0  0  0  0  0  0
    1.5138    1.3802   -1.7713 O   0  0  0  0  0  0
    3.9144    2.7945    1.1267 O   0  0  0  0  0  0
   -0.2095    1.6593    2.2893 O   0  0  0  0  0  0
    4.8857    3.8481   -0.6552 O   0  0  0  0  0  0
    4.0007   -0.6537   -1.4509 C   0  0  0  0  0  0
   -0.8624    4.5107    2.0075 C   0  0  0  0  0  0
    0.5441    5.1620    1.9182 C   0  0  2  0  0  0
    0.8788    5.6543    0.5065 C   0  0  0  0  0  0
    5.0825    5.0781    0.0350 C   0  0  0  0  0  0
   -0.2072   -2.4284   -1.2779 C   0  0  0  0  0  0
    5.4580    6.1746   -0.9481 C   0  0  0  0  0  0
    1.5161    4.2627    2.4207 O   0  0  0  0  0  0
    5.4859   -1.0122   -1.2039 C   0  0  0  0  0  0
    1.3724    4.7729   -0.4632 C   0  0  0  0  0  0
    0.6659    6.9961    0.1750 C   0  0  0  0  0  0
    0.9311   -2.6813   -2.0730 C   0  0  0  0  0  0
   -0.6858   -3.4446   -0.4242 C   0  0  0  0  0  0
    4.7140    7.3564   -0.9808 C   0  0  0  0  0  0
    6.5468    6.0075   -1.8090 C   0  0  0  0  0  0
    5.9631   -2.0930   -2.1979 C   0  0  0  0  0  0
    5.7616   -1.4093    0.2623 C   0  0  0  0  0  0
    0.9528    7.4537   -1.1088 C   0  0  0  0  0  0
    1.6614    5.2290   -1.7455 C   0  0  0  0  0  0
    5.0490    8.3643   -1.8809 C   0  0  0  0  0  0
    6.8830    7.0168   -2.7075 C   0  0  0  0  0  0
   -0.0739   -4.6913   -0.4184 C   0  0  0  0  0  0
    1.5302   -3.9336   -2.0513 C   0  0  0  0  0  0
    6.1315    8.1897   -2.7405 C   0  0  0  0  0  0
    1.0260   -4.9356   -1.2316 C   0  0  0  0  0  0
    1.4503    6.5686   -2.0628 C   0  0  0  0  0  0
   -0.6004   -0.6914    0.8930 H   0  0  0  0  0  0
    1.5917   -0.6089    0.6704 H   0  0  0  0  0  0
    3.6154    0.2850    0.4432 H   0  0  0  0  0  0
    4.5263    1.8744   -1.8971 H   0  0  0  0  0  0
   -1.5297    3.6433    0.1975 H   0  0  0  0  0  0
   -1.8938   -1.1485   -1.1841 H   0  0  0  0  0  0
   -0.5919   -0.5338   -2.1635 H   0  0  0  0  0  0
    3.4090   -1.5488   -1.2531 H   0  0  0  0  0  0
    3.8571   -0.4352   -2.5114 H   0  0  0  0  0  0
   -1.6152    5.2710    1.7965 H   0  0  0  0  0  0
   -1.0626    4.1877    3.0316 H   0  0  0  0  0  0
    0.5658    6.0139    2.5997 H   0  0  0  0  0  0
    4.1732    5.3625    0.5687 H   0  0  0  0  0  0
    5.8756    4.9703    0.7762 H   0  0  0  0  0  0
    2.3663    4.7076    2.4414 H   0  0  0  0  0  0
    6.0800   -0.1221   -1.4143 H   0  0  0  0  0  0
    1.5269    3.7312   -0.2249 H   0  0  0  0  0  0
    0.2780    7.6865    0.9099 H   0  0  0  0  0  0
    1.3402   -1.9023   -2.7001 H   0  0  0  0  0  0
   -1.5287   -3.2568    0.2251 H   0  0  0  0  0  0
    3.8739    7.4939   -0.3154 H   0  0  0  0  0  0
    7.1294    5.0980   -1.7838 H   0  0  0  0  0  0
    6.2067   -3.0363   -1.7087 H   0  0  0  0  0  0
    6.8563   -1.7626   -2.7291 H   0  0  0  0  0  0
    5.2079   -2.3186   -2.9515 H   0  0  0  0  0  0
    4.8483   -1.6867    0.7891 H   0  0  0  0  0  0
    6.2117   -0.5780    0.8059 H   0  0  0  0  0  0
    6.4481   -2.2515    0.3484 H   0  0  0  0  0  0
    0.7905    8.4904   -1.3638 H   0  0  0  0  0  0
    2.0460    4.5456   -2.4882 H   0  0  0  0  0  0
    4.4715    9.2764   -1.9125 H   0  0  0  0  0  0
    7.7220    6.8909   -3.3759 H   0  0  0  0  0  0
   -0.4496   -5.4717    0.2270 H   0  0  0  0  0  0
    2.3954   -4.1264   -2.6684 H   0  0  0  0  0  0
    6.3918    8.9718   -3.4384 H   0  0  0  0  0  0
    1.4985   -5.9067   -1.2184 H   0  0  0  0  0  0
    1.6752    6.9244   -3.0574 H   0  0  0  0  0  0
  1  2  1  0  0  0
  1  5  1  0  0  0
  1 10  2  0  0  0
  2  4  1  0  0  0
  2 11  1  0  0  0
  2 42  1  0  0  0
  3  4  1  0  0  0
  3  7  1  0  0  0
  3 12  2  0  0  0
  4 43  1  0  0  0
  5  9  1  0  0  0
  5 14  2  0  0  0
  6  8  1  0  0  0
  6 13  2  0  0  0
  6 15  1  0  0  0
  7  8  1  0  0  0
  7 16  1  0  0  0
  7 44  1  0  0  0
  8 45  1  0  0  0
  9 17  1  0  0  0
  9 46  1  0  0  0
 11 21  1  0  0  0
 11 47  1  0  0  0
 11 48  1  0  0  0
 15 20  1  0  0  0
 16 24  1  0  0  0
 16 49  1  0  0  0
 16 50  1  0  0  0
 17 18  1  0  0  0
 17 51  1  0  0  0
 17 52  1  0  0  0
 18 19  1  0  0  0
 18 23  1  0  0  0
 18 53  1  0  0  0
 19 25  2  0  0  0
 19 26  1  0  0  0
 20 22  1  0  0  0
 20 54  1  0  0  0
 20 55  1  0  0  0
 21 27  2  0  0  0
 21 28  1  0  0  0
 22 29  2  0  0  0
 22 30  1  0  0  0
 23 56  1  0  0  0
 24 31  1  0  0  0
 24 32  1  0  0  0
 24 57  1  0  0  0
 25 34  1  0  0  0
 25 58  1  0  0  0
 26 33  2  0  0  0
 26 59  1  0  0  0
 27 38  1  0  0  0
 27 60  1  0  0  0
 28 37  2  0  0  0
 28 61  1  0  0  0
 29 35  1  0  0  0
 29 62  1  0  0  0
 30 36  2  0  0  0
 30 63  1  0  0  0
 31 64  1  0  0  0
 31 65  1  0  0  0
 31 66  1  0  0  0
 32 67  1  0  0  0
 32 68  1  0  0  0
 32 69  1  0  0  0
 33 41  1  0  0  0
 33 70  1  0  0  0
 34 41  2  0  0  0
 34 71  1  0  0  0
 35 39  2  0  0  0
 35 72  1  0  0  0
 36 39  1  0  0  0
 36 73  1  0  0  0
 37 40  1  0  0  0
 37 74  1  0  0  0
 38 40  2  0  0  0
 38 75  1  0  0  0
 39 76  1  0  0  0
 40 77  1  0  0  0
 41 78  1  0  0  0
M  END
> <chembl_id>
CHEMBL134179

> <chembl_pref_name>
None

> <s_m_source_file>
sdf/inactives_sanitized.sdf

> <i_m_source_file_index>
168

> <i_lp_mmshare_version>
49012

> <i_m_ct_stereo_status>
1

> <i_f3d_flags>
0

> <s_epik_input>
W2NIXTFbY0hdW2NIXVtjSF1bY0hdYzFbQ0BIXShbT0hdKVtDSDJdW05IXUMoPU8pQyg9TylbQ0BASF0oW0NIMl1jMltjSF1bY0hdW2NIXVtjSF1bY0hdMilbTkhdQyg9TylbQ0BASF0oW0NIMl1bQ0hdKFtDSDNdKVtDSDNdKVtOSF1DKD1PKU9bQ0gyXWMzW2NIXVtjSF1bY0hdW2NIXVtjSF0z

> <s_epik_cmdline>
J2VwaWtfcHl0aG9uJywgJy1waHQnLCAnMC41JywgJy1waCcsICc3LjUnLCAnLW50JywgJy1tYScsICcyMDAnLCAnLWltYWUnLCAnPGluZmlsZS5tYWU+JywgJy1vbWFlJywgJzxvdXRmaWxlLm1hZT4n

> <r_lp_tautomer_probability>
1

> <r_epik_Ionization_Penalty>
  0.0000

> <r_epik_Ionization_Penalty_Charging>
  0.0000

> <r_epik_Ionization_Penalty_Neutral>
  0.0000

> <r_epik_State_Penalty>
 -0.0000

> <r_epik_Charging_Adjusted_Penalty>
0

> <i_epik_Tot_Q>
0

> <i_epik_Tot_abs_Q>
0

> <s_epik_Chemistry_Notes>
This compound has an ester and may undergo hydrolysis at high or low pH.

> <s_lp_Force_Field>
OPLS3e

> <r_lp_Energy>
37.522696

> <b_lp_Chiralities_Consistent>
1

> <s_lp_Variant>
sdf/inactives_sanitized.sdf:168-1

$$$$
sdf/inactives_sanitized.sdf:169
                    3D
 Schrodinger Suite 2020-1.
 62 64  0  0  1  0            999 V2000
   -3.7602    3.0938   -1.2187 C   0  0  0  0  0  0
   -4.2989    3.4195   -0.0024 N   0  0  0  0  0  0
   -2.2565    2.7476   -1.1639 C   0  0  0  0  0  0
   -1.9087    1.8941    0.0759 C   0  0  2  0  0  0
   -2.2973    2.6317    1.3723 C   0  0  0  0  0  0
   -0.0569    0.2536    0.4899 C   0  0  0  0  0  0
   -0.5055    1.4638    0.1081 N   0  0  0  0  0  0
    2.4561   -0.1659    2.6155 C   0  0  0  0  0  0
   -3.4879    3.6004    1.2302 C   0  0  0  0  0  0
    1.4644    0.0218    0.3366 C   0  0  1  0  0  0
    2.0253   -0.7711    1.4409 N   0  0  0  0  0  0
   -4.3879    3.0757   -2.2793 O   0  0  0  0  0  0
   -1.6905    2.5136    2.4376 O   0  0  0  0  0  0
   -0.7822   -0.6603    0.8863 O   0  0  0  0  0  0
    1.8536   -0.6550   -1.0045 C   0  0  0  0  0  0
    2.4402    1.0421    2.8665 O   0  0  0  0  0  0
    2.8968   -1.1211    3.4561 O   0  0  0  0  0  0
    3.3830   -0.7872    4.7526 C   0  0  0  0  0  0
   -5.6949    3.8750    0.0520 C   0  0  0  0  0  0
    1.3919    0.0556   -2.2695 C   0  0  0  0  0  0
    3.7564   -2.0447    5.5254 C   0  0  0  0  0  0
    0.1595   -0.2817   -2.8704 C   0  0  0  0  0  0
    2.1014    1.1773   -2.7487 C   0  0  0  0  0  0
    4.9355   -2.0641    6.2749 C   0  0  0  0  0  0
    2.9219   -3.1677    5.5072 C   0  0  0  0  0  0
   -5.8646    5.3843   -0.2049 C   0  0  0  0  0  0
   -7.3288    5.8320   -0.1159 C   0  0  0  0  0  0
    3.2722   -4.3074    6.2264 C   0  0  0  0  0  0
   -0.3091    0.4490   -3.9541 C   0  0  0  0  0  0
    1.6165    1.8943   -3.8347 C   0  0  0  0  0  0
    5.2852   -3.2043    6.9941 C   0  0  0  0  0  0
    4.4528   -4.3210    6.9656 C   0  0  0  0  0  0
    0.4188    1.5290   -4.4367 C   0  0  0  0  0  0
   -2.0012    2.2026   -2.0741 H   0  0  0  0  0  0
   -1.6862    3.6778   -1.1849 H   0  0  0  0  0  0
   -2.5348    0.9981    0.0493 H   0  0  0  0  0  0
    0.1711    2.1421   -0.2109 H   0  0  0  0  0  0
   -3.0553    4.6004    1.1842 H   0  0  0  0  0  0
   -4.1125    3.5930    2.1242 H   0  0  0  0  0  0
    1.9528    1.0001    0.3030 H   0  0  0  0  0  0
    2.0444   -1.7772    1.3602 H   0  0  0  0  0  0
    2.9400   -0.7466   -1.0572 H   0  0  0  0  0  0
    1.4772   -1.6795   -1.0288 H   0  0  0  0  0  0
    4.2573   -0.1413    4.6529 H   0  0  0  0  0  0
    2.6263   -0.2377    5.3151 H   0  0  0  0  0  0
   -6.3091    3.3160   -0.6567 H   0  0  0  0  0  0
   -6.1153    3.6185    1.0253 H   0  0  0  0  0  0
   -0.4261   -1.1038   -2.4851 H   0  0  0  0  0  0
    3.0210    1.4829   -2.2713 H   0  0  0  0  0  0
    5.5821   -1.1990    6.3014 H   0  0  0  0  0  0
    2.0034   -3.1592    4.9382 H   0  0  0  0  0  0
   -5.2767    5.9513    0.5183 H   0  0  0  0  0  0
   -5.4800    5.6368   -1.1940 H   0  0  0  0  0  0
   -7.4207    6.9018   -0.3052 H   0  0  0  0  0  0
   -7.7443    5.6342    0.8726 H   0  0  0  0  0  0
   -7.9461    5.3126   -0.8497 H   0  0  0  0  0  0
    2.6307   -5.1761    6.2121 H   0  0  0  0  0  0
   -1.2486    0.1833   -4.4160 H   0  0  0  0  0  0
    2.1677    2.7455   -4.2065 H   0  0  0  0  0  0
    6.1974   -3.2232    7.5719 H   0  0  0  0  0  0
    4.7243   -5.2050    7.5238 H   0  0  0  0  0  0
    0.0454    2.0952   -5.2773 H   0  0  0  0  0  0
  1  2  1  0  0  0
  1  3  1  0  0  0
  1 12  2  0  0  0
  2  9  1  0  0  0
  2 19  1  0  0  0
  3  4  1  0  0  0
  3 34  1  0  0  0
  3 35  1  0  0  0
  4  5  1  0  0  0
  4  7  1  0  0  0
  4 36  1  0  0  0
  5 13  2  0  0  0
  5  9  1  0  0  0
  6  7  1  0  0  0
  6 10  1  0  0  0
  6 14  2  0  0  0
  7 37  1  0  0  0
  8 11  1  0  0  0
  8 16  2  0  0  0
  8 17  1  0  0  0
  9 38  1  0  0  0
  9 39  1  0  0  0
 10 11  1  0  0  0
 10 15  1  0  0  0
 10 40  1  0  0  0
 11 41  1  0  0  0
 15 20  1  0  0  0
 15 42  1  0  0  0
 15 43  1  0  0  0
 17 18  1  0  0  0
 18 21  1  0  0  0
 18 44  1  0  0  0
 18 45  1  0  0  0
 19 26  1  0  0  0
 19 46  1  0  0  0
 19 47  1  0  0  0
 20 22  2  0  0  0
 20 23  1  0  0  0
 21 24  2  0  0  0
 21 25  1  0  0  0
 22 29  1  0  0  0
 22 48  1  0  0  0
 23 30  2  0  0  0
 23 49  1  0  0  0
 24 31  1  0  0  0
 24 50  1  0  0  0
 25 28  2  0  0  0
 25 51  1  0  0  0
 26 27  1  0  0  0
 26 52  1  0  0  0
 26 53  1  0  0  0
 27 54  1  0  0  0
 27 55  1  0  0  0
 27 56  1  0  0  0
 28 32  1  0  0  0
 28 57  1  0  0  0
 29 33  2  0  0  0
 29 58  1  0  0  0
 30 33  1  0  0  0
 30 59  1  0  0  0
 31 32  2  0  0  0
 31 60  1  0  0  0
 32 61  1  0  0  0
 33 62  1  0  0  0
M  END
> <chembl_id>
CHEMBL101306

> <chembl_pref_name>
None

> <i_m_ct_stereo_status>
1

> <s_m_source_file>
sdf/inactives_sanitized.sdf

> <i_m_source_file_index>
169

> <i_lp_mmshare_version>
49012

> <i_f3d_flags>
0

> <s_epik_input>
W0NIM11bQ0gyXVtDSDJdTihDMT1PKVtDSDJdQyg9TylbQ0BASF0oW0NIMl0xKVtOSF1DKD1PKVtDQEhdKFtDSDJdYzJbY0hdW2NIXVtjSF1bY0hdW2NIXTIpW05IXUMoPU8pT1tDSDJdYzNbY0hdW2NIXVtjSF1bY0hdW2NIXTM=

> <s_epik_cmdline>
J2VwaWtfcHl0aG9uJywgJy1waHQnLCAnMC41JywgJy1waCcsICc3LjUnLCAnLW50JywgJy1tYScsICcyMDAnLCAnLWltYWUnLCAnPGluZmlsZS5tYWU+JywgJy1vbWFlJywgJzxvdXRmaWxlLm1hZT4n

> <r_lp_tautomer_probability>
1

> <r_epik_Ionization_Penalty>
  0.0000

> <r_epik_Ionization_Penalty_Charging>
  0.0000

> <r_epik_Ionization_Penalty_Neutral>
  0.0000

> <r_epik_State_Penalty>
 -0.0000

> <r_epik_Charging_Adjusted_Penalty>
0

> <i_epik_Tot_Q>
0

> <i_epik_Tot_abs_Q>
0

> <s_epik_Chemistry_Notes>
This compound has an ester and may undergo hydrolysis at high or low pH.

> <s_lp_Force_Field>
OPLS3e

> <r_lp_Energy>
51.965528

> <b_lp_Chiralities_Consistent>
1

> <s_lp_Variant>
sdf/inactives_sanitized.sdf:169-1

$$$$
sdf/inactives_sanitized.sdf:170
                    3D
 Schrodinger Suite 2020-1.
 60 60  0  0  1  0            999 V2000
   -2.0571    1.3763   -1.3602 C   0  0  0  0  0  0
    0.4792   -0.0514   -0.2601 C   0  0  0  0  0  0
   -0.0732    1.1088    0.1528 N   0  0  0  0  0  0
   -1.2312    1.9788   -2.5753 C   0  0  0  0  0  0
    3.0554   -0.5013   -2.2104 C   0  0  0  0  0  0
    1.9789   -0.2337    0.0733 C   0  0  2  0  0  0
   -1.4783    1.5587    0.0514 C   0  0  1  0  0  0
    2.7021   -1.0091   -0.9568 N   0  0  0  0  0  0
   -3.1252    0.7924   -1.5603 O   0  0  0  0  0  0
   -0.1371   -0.9520   -0.8329 O   0  0  0  0  0  0
    3.5991   -1.1706   -3.0892 O   0  0  0  0  0  0
   -0.3649    2.8361   -2.4041 O   0  0  0  0  0  0
    2.7486    0.8136   -2.3369 O   0  0  0  0  0  0
    2.1398   -0.9411    1.4465 C   0  0  0  0  0  0
   -1.5831    1.4342   -3.7548 N   0  0  0  0  0  0
    3.0937    1.5412   -3.5110 C   0  0  0  0  0  0
    2.7020    3.0066   -3.3756 C   0  0  0  0  0  0
   -1.6417    3.0096    0.5777 C   0  0  0  0  0  0
    3.5877   -1.0032    1.9911 C   0  0  0  0  0  0
   -0.9678    1.7573   -5.0399 C   0  0  0  0  0  0
    2.2555    3.6968   -4.5052 C   0  0  0  0  0  0
    2.7898    3.6669   -2.1440 C   0  0  0  0  0  0
    3.6667   -1.8884    3.2539 C   0  0  0  0  0  0
    4.1911    0.3995    2.2227 C   0  0  0  0  0  0
   -3.0952    3.5001    0.7051 C   0  0  0  0  0  0
   -1.3450    3.1484   -5.5739 C   0  0  0  0  0  0
    2.4124    5.0031   -2.0419 C   0  0  0  0  0  0
    1.8787    5.0331   -4.4026 C   0  0  0  0  0  0
    1.9558    5.6793   -3.1710 C   0  0  0  0  0  0
    0.5055    1.7062    0.7252 H   0  0  0  0  0  0
    2.4317    0.7566    0.1581 H   0  0  0  0  0  0
   -2.0295    0.9164    0.7414 H   0  0  0  0  0  0
    2.8504   -1.9917   -0.7785 H   0  0  0  0  0  0
    1.5207   -0.4435    2.1959 H   0  0  0  0  0  0
    1.7416   -1.9555    1.3707 H   0  0  0  0  0  0
   -2.3097    0.7327   -3.7649 H   0  0  0  0  0  0
    4.1669    1.4777   -3.6968 H   0  0  0  0  0  0
    2.5780    1.1017   -4.3666 H   0  0  0  0  0  0
   -1.1775    3.0762    1.5631 H   0  0  0  0  0  0
   -1.0779    3.7095   -0.0407 H   0  0  0  0  0  0
    4.2024   -1.4968    1.2372 H   0  0  0  0  0  0
    0.1168    1.6618   -4.9654 H   0  0  0  0  0  0
   -1.2850    1.0005   -5.7578 H   0  0  0  0  0  0
    2.1906    3.1978   -5.4611 H   0  0  0  0  0  0
    3.1410    3.1476   -1.2643 H   0  0  0  0  0  0
    3.9386   -1.3265    4.1473 H   0  0  0  0  0  0
    4.4105   -2.6755    3.1282 H   0  0  0  0  0  0
    2.7169   -2.3781    3.4709 H   0  0  0  0  0  0
    3.4255    1.1754    2.2446 H   0  0  0  0  0  0
    4.8886    0.6531    1.4239 H   0  0  0  0  0  0
    4.7437    0.4724    3.1591 H   0  0  0  0  0  0
   -3.1295    4.4971    1.1452 H   0  0  0  0  0  0
   -3.6814    2.8375    1.3425 H   0  0  0  0  0  0
   -3.5889    3.5558   -0.2654 H   0  0  0  0  0  0
   -0.8721    3.3287   -6.5394 H   0  0  0  0  0  0
   -1.0162    3.9411   -4.9011 H   0  0  0  0  0  0
   -2.4223    3.2415   -5.7149 H   0  0  0  0  0  0
    2.4716    5.5120   -1.0911 H   0  0  0  0  0  0
    1.5251    5.5650   -5.2735 H   0  0  0  0  0  0
    1.6608    6.7149   -3.0911 H   0  0  0  0  0  0
  1  4  1  0  0  0
  1  7  1  0  0  0
  1  9  2  0  0  0
  2  3  1  0  0  0
  2  6  1  0  0  0
  2 10  2  0  0  0
  3  7  1  0  0  0
  3 30  1  0  0  0
  4 12  2  0  0  0
  4 15  1  0  0  0
  5  8  1  0  0  0
  5 11  2  0  0  0
  5 13  1  0  0  0
  6  8  1  0  0  0
  6 14  1  0  0  0
  6 31  1  0  0  0
  7 18  1  0  0  0
  7 32  1  0  0  0
  8 33  1  0  0  0
 13 16  1  0  0  0
 14 19  1  0  0  0
 14 34  1  0  0  0
 14 35  1  0  0  0
 15 20  1  0  0  0
 15 36  1  0  0  0
 16 17  1  0  0  0
 16 37  1  0  0  0
 16 38  1  0  0  0
 17 21  2  0  0  0
 17 22  1  0  0  0
 18 25  1  0  0  0
 18 39  1  0  0  0
 18 40  1  0  0  0
 19 23  1  0  0  0
 19 24  1  0  0  0
 19 41  1  0  0  0
 20 26  1  0  0  0
 20 42  1  0  0  0
 20 43  1  0  0  0
 21 28  1  0  0  0
 21 44  1  0  0  0
 22 27  2  0  0  0
 22 45  1  0  0  0
 23 46  1  0  0  0
 23 47  1  0  0  0
 23 48  1  0  0  0
 24 49  1  0  0  0
 24 50  1  0  0  0
 24 51  1  0  0  0
 25 52  1  0  0  0
 25 53  1  0  0  0
 25 54  1  0  0  0
 26 55  1  0  0  0
 26 56  1  0  0  0
 26 57  1  0  0  0
 27 29  1  0  0  0
 27 58  1  0  0  0
 28 29  2  0  0  0
 28 59  1  0  0  0
 29 60  1  0  0  0
M  END
> <chembl_id>
CHEMBL325147

> <chembl_pref_name>
None

> <s_m_source_file>
sdf/inactives_sanitized.sdf

> <i_m_source_file_index>
170

> <i_lp_mmshare_version>
49012

> <i_m_ct_stereo_status>
1

> <i_f3d_flags>
0

> <s_epik_input>
W0NIM11bQ0gyXVtOSF1DKD1PKUMoPU8pW0NASF0oW0NIMl1bQ0gzXSlbTkhdQyg9TylbQ0BASF0oW0NIMl1bQ0hdKFtDSDNdKVtDSDNdKVtOSF1DKD1PKU9bQ0gyXWMxW2NIXVtjSF1bY0hdW2NIXVtjSF0x

> <s_epik_cmdline>
J2VwaWtfcHl0aG9uJywgJy1waHQnLCAnMC41JywgJy1waCcsICc3LjUnLCAnLW50JywgJy1tYScsICcyMDAnLCAnLWltYWUnLCAnPGluZmlsZS5tYWU+JywgJy1vbWFlJywgJzxvdXRmaWxlLm1hZT4n

> <r_lp_tautomer_probability>
1

> <r_epik_Ionization_Penalty>
  0.0000

> <r_epik_Ionization_Penalty_Charging>
  0.0000

> <r_epik_Ionization_Penalty_Neutral>
  0.0000

> <r_epik_State_Penalty>
 -0.0000

> <r_epik_Charging_Adjusted_Penalty>
0

> <i_epik_Tot_Q>
0

> <i_epik_Tot_abs_Q>
0

> <s_epik_Chemistry_Notes>
This compound has an ester and may undergo hydrolysis at high or low pH.

> <s_lp_Force_Field>
OPLS3e

> <r_lp_Energy>
25.055648

> <b_lp_Chiralities_Consistent>
1

> <s_lp_Variant>
sdf/inactives_sanitized.sdf:170-1

$$$$
sdf/inactives_sanitized.sdf:171
                    3D
 Schrodinger Suite 2020-1.
 65 68  0  0  1  0            999 V2000
   -2.7629    3.6274   -0.5480 C   0  0  0  0  0  0
   -2.5177    3.8078    0.6983 N   0  0  0  0  0  0
   -0.4849    1.6654   -0.0864 N   0  0  0  0  0  0
   -0.7055    2.1753    1.1724 C   0  0  0  0  0  0
   -1.1698    3.6553    1.2379 C   0  0  1  0  0  0
   -1.7333    3.2643   -1.5659 C   0  0  0  0  0  0
   -0.6553    2.3548   -1.3319 C   0  0  0  0  0  0
    0.2046    2.0785   -2.4129 C   0  0  0  0  0  0
    0.0763    2.7000   -3.6486 C   0  0  0  0  0  0
   -0.9405    3.6174   -3.8519 C   0  0  0  0  0  0
   -1.8309    3.8924   -2.8227 C   0  0  0  0  0  0
   -0.5625    1.5412    2.2230 O   0  0  0  0  0  0
   -0.1642    4.7472    0.7309 C   0  0  0  0  0  0
    0.8832    5.1306    1.6904 N   0  0  0  0  0  0
    0.0219    0.2622   -0.1106 C   0  0  0  0  0  0
    1.5403    0.1795    0.1789 C   0  0  0  0  0  0
    2.0079   -1.0424    0.4878 N   0  0  0  0  0  0
    2.2598    1.1806    0.1317 O   0  0  0  0  0  0
    3.3954   -1.3347    0.8475 C   0  0  0  0  0  0
    3.8264   -0.7206    2.1693 C   0  0  0  0  0  0
    4.7913    0.2126    2.2883 C   0  0  0  0  0  0
    5.1765    0.8009    3.5643 C   0  0  0  0  0  0
    6.2910    1.8424    3.5414 C   0  0  0  0  0  0
    4.6535    0.5041    4.6392 O   0  0  0  0  0  0
   -4.1627    3.7801   -1.0121 C   0  0  0  0  0  0
   -4.7154    2.8566   -1.9120 C   0  0  0  0  0  0
   -6.0307    2.9994   -2.3461 C   0  0  0  0  0  0
   -6.8004    4.0620   -1.8805 C   0  0  0  0  0  0
   -6.2678    4.9831   -0.9826 C   0  0  0  0  0  0
   -4.9529    4.8423   -0.5468 C   0  0  0  0  0  0
    1.5022    6.3987    1.2773 C   0  0  0  0  0  0
    2.6561    6.8117    2.2148 C   0  0  0  0  0  0
    3.6129    5.7625    2.2956 O   0  0  0  0  0  0
    3.0489    4.5625    2.8103 C   0  0  0  0  0  0
    1.8932    4.0825    1.9074 C   0  0  0  0  0  0
   -1.2947    3.8647    2.3024 H   0  0  0  0  0  0
    1.0202    1.3811   -2.3008 H   0  0  0  0  0  0
    0.7703    2.4731   -4.4445 H   0  0  0  0  0  0
   -1.0428    4.1122   -4.8064 H   0  0  0  0  0  0
   -2.6117    4.6131   -3.0224 H   0  0  0  0  0  0
    0.3034    4.4719   -0.2144 H   0  0  0  0  0  0
   -0.7485    5.6444    0.5155 H   0  0  0  0  0  0
   -0.5251   -0.3605    0.6001 H   0  0  0  0  0  0
   -0.1711   -0.1855   -1.0860 H   0  0  0  0  0  0
    1.3521   -1.8057    0.5692 H   0  0  0  0  0  0
    3.4752   -2.4166    0.9550 H   0  0  0  0  0  0
    4.0656   -1.0630    0.0293 H   0  0  0  0  0  0
    3.2943   -1.0765    3.0413 H   0  0  0  0  0  0
    5.3185    0.5672    1.4142 H   0  0  0  0  0  0
    6.0080    2.6864    2.9123 H   0  0  0  0  0  0
    7.2072    1.4073    3.1418 H   0  0  0  0  0  0
    6.4969    2.2156    4.5451 H   0  0  0  0  0  0
   -4.1337    2.0223   -2.2782 H   0  0  0  0  0  0
   -6.4526    2.2876   -3.0403 H   0  0  0  0  0  0
   -7.8208    4.1717   -2.2174 H   0  0  0  0  0  0
   -6.8718    5.8042   -0.6250 H   0  0  0  0  0  0
   -4.5536    5.5673    0.1489 H   0  0  0  0  0  0
    1.8747    6.3086    0.2550 H   0  0  0  0  0  0
    0.7445    7.1831    1.2534 H   0  0  0  0  0  0
    3.1487    7.7037    1.8276 H   0  0  0  0  0  0
    2.2827    7.0683    3.2080 H   0  0  0  0  0  0
    3.8270    3.8004    2.8504 H   0  0  0  0  0  0
    2.7069    4.7098    3.8365 H   0  0  0  0  0  0
    1.4373    3.2032    2.3564 H   0  0  0  0  0  0
    2.2940    3.7619    0.9447 H   0  0  0  0  0  0
  1  6  1  0  0  0
  1 25  1  0  0  0
  1  2  2  0  0  0
  2  5  1  0  0  0
  3  4  1  0  0  0
  3  7  1  0  0  0
  3 15  1  0  0  0
  4  5  1  0  0  0
  4 12  2  0  0  0
  5 13  1  0  0  0
  5 36  1  0  0  0
  6 11  1  0  0  0
  6  7  2  0  0  0
  7  8  1  0  0  0
  8  9  2  0  0  0
  8 37  1  0  0  0
  9 10  1  0  0  0
  9 38  1  0  0  0
 10 11  2  0  0  0
 10 39  1  0  0  0
 11 40  1  0  0  0
 13 14  1  0  0  0
 13 41  1  0  0  0
 13 42  1  0  0  0
 14 31  1  0  0  0
 14 35  1  0  0  0
 15 16  1  0  0  0
 15 43  1  0  0  0
 15 44  1  0  0  0
 16 17  1  0  0  0
 16 18  2  0  0  0
 17 19  1  0  0  0
 17 45  1  0  0  0
 19 20  1  0  0  0
 19 46  1  0  0  0
 19 47  1  0  0  0
 20 21  2  0  0  0
 20 48  1  0  0  0
 21 22  1  0  0  0
 21 49  1  0  0  0
 22 23  1  0  0  0
 22 24  2  0  0  0
 23 50  1  0  0  0
 23 51  1  0  0  0
 23 52  1  0  0  0
 25 26  2  0  0  0
 25 30  1  0  0  0
 26 27  1  0  0  0
 26 53  1  0  0  0
 27 28  2  0  0  0
 27 54  1  0  0  0
 28 29  1  0  0  0
 28 55  1  0  0  0
 29 30  2  0  0  0
 29 56  1  0  0  0
 30 57  1  0  0  0
 31 32  1  0  0  0
 31 58  1  0  0  0
 31 59  1  0  0  0
 32 33  1  0  0  0
 32 60  1  0  0  0
 32 61  1  0  0  0
 33 34  1  0  0  0
 34 35  1  0  0  0
 34 62  1  0  0  0
 34 63  1  0  0  0
 35 64  1  0  0  0
 35 65  1  0  0  0
M  END
> <chembl_id>
CHEMBL1952261

> <chembl_pref_name>
None

> <i_m_ct_stereo_status>
1

> <s_m_source_file>
sdf/inactives_sanitized.sdf

> <i_m_source_file_index>
171

> <i_lp_mmshare_version>
49012

> <i_f3d_flags>
0

> <s_epik_input>
W2NIXTFbY0hdW2NIXVtjSF1bY0hdYzFDMj1OW0NASF0oW0NIMl1OM1tDSDJdW0NIMl1PW0NIMl1bQ0gyXTMpQyg9TylOKGMoYzI0KVtjSF1bY0hdW2NIXVtjSF00KVtDSDJdQyg9TylbTkhdW0NIMl0vW0NIXT1bQ0hdL0MoPU8pW0NIM10=

> <s_epik_cmdline>
J2VwaWtfcHl0aG9uJywgJy1waHQnLCAnMC41JywgJy1waCcsICc3LjUnLCAnLW50JywgJy1tYScsICcyMDAnLCAnLWltYWUnLCAnPGluZmlsZS5tYWU+JywgJy1vbWFlJywgJzxvdXRmaWxlLm1hZT4n

> <r_epik_Ionization_Penalty>
  0.0674

> <r_epik_Ionization_Penalty_Charging>
  0.0000

> <r_epik_Ionization_Penalty_Neutral>
  0.0674

> <r_epik_State_Penalty>
  0.0588

> <r_epik_Charging_Adjusted_Penalty>
0.0588121206883569

> <i_epik_Tot_Q>
0

> <i_epik_Tot_abs_Q>
0

> <s_epik_Chemistry_Notes>
This compound has an imine and may undergo hydrolysis.

> <s_lp_Force_Field>
OPLS3e

> <r_lp_Energy>
61.820996

> <b_lp_Chiralities_Consistent>
1

> <s_lp_Variant>
sdf/inactives_sanitized.sdf:171-1

$$$$
sdf/inactives_sanitized.sdf:172
                    3D
 Schrodinger Suite 2020-1.
 55 57  0  0  1  0            999 V2000
    2.1725    0.6175   -1.7232 C   0  0  0  0  0  0
    1.6344    1.9826   -2.2705 C   0  0  0  0  0  0
    2.5400    2.6614   -3.3290 C   0  0  0  0  0  0
    4.0033    2.7765   -2.8515 C   0  0  0  0  0  0
    4.5628    1.4448   -2.3084 C   0  0  0  0  0  0
    3.6312    0.8539   -1.2247 C   0  0  0  0  0  0
   -0.6869   -0.4003    0.9097 O   0  0  0  0  0  0
   -0.3379    0.3508   -0.3009 S   0  0  0  0  0  0
   -0.9501    0.0100   -1.5906 O   0  0  0  0  0  0
    0.9672    4.1369    3.4103 C   0  0  0  0  0  0
    0.1403    4.8437    2.5370 C   0  0  0  0  0  0
    0.7312    2.1186    2.1245 C   0  0  0  0  0  0
    1.2587    2.7985    3.2107 C   0  0  0  0  0  0
   -0.1225    2.7681    1.1914 C   0  0  0  0  0  0
   -0.4275    4.1588    1.4003 C   0  0  0  0  0  0
   -1.2842    4.8011    0.4611 C   0  0  0  0  0  0
   -1.8078    4.1165   -0.6253 C   0  0  0  0  0  0
   -1.5068    2.7805   -0.8264 C   0  0  0  0  0  0
   -0.6735    2.0891    0.0525 C   0  0  0  0  0  0
   -0.0556    6.2024    2.8656 N   0  0  0  0  0  0
    0.5445    7.1488    1.9300 C   0  0  0  0  0  0
   -1.4064    6.5329    3.3092 C   0  0  0  0  0  0
    1.4177    0.2288   -0.4910 N   0  0  3  0  0  0
    2.1673   -0.5337   -2.7843 C   0  0  0  0  0  0
    2.0532   -1.7987   -2.3336 N   0  0  0  0  0  0
    2.2867   -0.2947   -3.9860 O   0  0  0  0  0  0
    2.0846   -2.9915   -3.1755 C   0  0  0  0  0  0
    3.4017   -3.2140   -3.7977 C   0  0  0  0  0  0
    4.4363   -3.3888   -4.2854 N   0  0  0  0  0  0
    0.6396    1.8563   -2.6991 H   0  0  0  0  0  0
    1.5177    2.6855   -1.4444 H   0  0  0  0  0  0
    2.5041    2.1303   -4.2787 H   0  0  0  0  0  0
    2.1534    3.6573   -3.5482 H   0  0  0  0  0  0
    4.6317    3.1394   -3.6656 H   0  0  0  0  0  0
    4.0616    3.5321   -2.0663 H   0  0  0  0  0  0
    4.6968    0.7367   -3.1270 H   0  0  0  0  0  0
    5.5568    1.6088   -1.8907 H   0  0  0  0  0  0
    3.6301    1.5310   -0.3672 H   0  0  0  0  0  0
    4.0674   -0.0768   -0.8552 H   0  0  0  0  0  0
    1.4006    4.6331    4.2678 H   0  0  0  0  0  0
    0.9891    1.0790    2.0062 H   0  0  0  0  0  0
    1.9035    2.2813    3.9059 H   0  0  0  0  0  0
   -1.5473    5.8392    0.5743 H   0  0  0  0  0  0
   -2.4556    4.6290   -1.3211 H   0  0  0  0  0  0
   -1.9338    2.2841   -1.6851 H   0  0  0  0  0  0
    1.5740    6.8646    1.7069 H   0  0  0  0  0  0
    0.5736    8.1462    2.3698 H   0  0  0  0  0  0
    0.0075    7.2083    0.9849 H   0  0  0  0  0  0
   -1.7432    5.8234    4.0663 H   0  0  0  0  0  0
   -2.1324    6.5172    2.4980 H   0  0  0  0  0  0
   -1.4224    7.5237    3.7645 H   0  0  0  0  0  0
    1.9651   -0.1050    0.3066 H   0  0  0  0  0  0
    2.0026   -1.9532   -1.3373 H   0  0  0  0  0  0
    1.8488   -3.8628   -2.5645 H   0  0  0  0  0  0
    1.3270   -2.9342   -3.9590 H   0  0  0  0  0  0
  1  2  1  0  0  0
  1  6  1  0  0  0
  1 23  1  0  0  0
  1 24  1  0  0  0
  2  3  1  0  0  0
  2 30  1  0  0  0
  2 31  1  0  0  0
  3  4  1  0  0  0
  3 32  1  0  0  0
  3 33  1  0  0  0
  4  5  1  0  0  0
  4 34  1  0  0  0
  4 35  1  0  0  0
  5  6  1  0  0  0
  5 36  1  0  0  0
  5 37  1  0  0  0
  6 38  1  0  0  0
  6 39  1  0  0  0
  7  8  2  0  0  0
  8  9  2  0  0  0
  8 19  1  0  0  0
  8 23  1  0  0  0
 10 11  2  0  0  0
 10 13  1  0  0  0
 10 40  1  0  0  0
 11 15  1  0  0  0
 11 20  1  0  0  0
 12 14  1  0  0  0
 12 13  2  0  0  0
 12 41  1  0  0  0
 13 42  1  0  0  0
 14 15  2  0  0  0
 14 19  1  0  0  0
 15 16  1  0  0  0
 16 17  2  0  0  0
 16 43  1  0  0  0
 17 18  1  0  0  0
 17 44  1  0  0  0
 18 19  2  0  0  0
 18 45  1  0  0  0
 20 21  1  0  0  0
 20 22  1  0  0  0
 21 46  1  0  0  0
 21 47  1  0  0  0
 21 48  1  0  0  0
 22 49  1  0  0  0
 22 50  1  0  0  0
 22 51  1  0  0  0
 23 52  1  0  0  0
 24 25  1  0  0  0
 24 26  2  0  0  0
 25 27  1  0  0  0
 25 53  1  0  0  0
 27 28  1  0  0  0
 27 54  1  0  0  0
 27 55  1  0  0  0
 28 29  3  0  0  0
M  END
> <chembl_id>
CHEMBL2203960

> <chembl_pref_name>
None

> <s_m_source_file>
sdf/inactives_sanitized.sdf

> <i_m_source_file_index>
172

> <i_lp_mmshare_version>
49012

> <i_m_ct_stereo_status>
1

> <i_f3d_flags>
0

> <s_epik_input>
W0NIMl0xW0NIMl1bQ0gyXVtDSDJdW0NIMl1DMShDKD1PKVtOSF1bQ0gyXUMjTilbTkhdUyg9TykoPU8pYzJbY0hdW2NIXVtjSF1jKGMyMyljKE4oW0NIM10pW0NIM10pW2NIXVtjSF1bY0hdMw==

> <s_epik_cmdline>
J2VwaWtfcHl0aG9uJywgJy1waHQnLCAnMC41JywgJy1waCcsICc3LjUnLCAnLW50JywgJy1tYScsICcyMDAnLCAnLWltYWUnLCAnPGluZmlsZS5tYWU+JywgJy1vbWFlJywgJzxvdXRmaWxlLm1hZT4n

> <r_lp_tautomer_probability>
1

> <r_epik_Ionization_Penalty>
  0.0008

> <r_epik_Ionization_Penalty_Charging>
  0.0000

> <r_epik_Ionization_Penalty_Neutral>
  0.0008

> <r_epik_State_Penalty>
 -0.0000

> <r_epik_Charging_Adjusted_Penalty>
0

> <i_epik_Tot_Q>
0

> <i_epik_Tot_abs_Q>
0

> <s_lp_Force_Field>
OPLS3e

> <r_lp_Energy>
51.110571

> <b_lp_Chiralities_Consistent>
1

> <s_lp_Variant>
sdf/inactives_sanitized.sdf:172-1

$$$$
sdf/inactives_sanitized.sdf:173
                    3D
 Schrodinger Suite 2020-1.
 35 37  0  0  1  0            999 V2000
   -0.9261    2.9330    0.8011 C   0  0  0  0  0  0
    0.2870    2.0912    0.3806 C   0  0  0  0  0  0
    0.5135    0.5953    1.3930 S   0  0  0  0  0  0
    1.9919   -0.1179    0.6468 C   0  0  0  0  0  0
    2.6177    0.4149   -0.3498 N   0  0  0  0  0  0
    3.7816   -0.2246   -0.8708 C   0  0  0  0  0  0
    4.1984   -1.4423   -0.2567 N   0  0  0  0  0  0
    3.5256   -1.9170    0.7378 C   0  0  0  0  0  0
    2.3908   -1.3027    1.2553 N   0  0  0  0  0  0
    4.4042    0.2568   -1.8143 O   0  0  0  0  0  0
    3.9655   -3.4344    1.6087 S   0  0  0  0  0  0
    5.6376   -3.7863    0.9626 C   0  0  0  0  0  0
    6.6951   -2.8529    1.5395 C   0  0  0  0  0  0
    7.2982   -1.8861    0.7294 C   0  0  0  0  0  0
    8.2681   -1.0397    1.2599 C   0  0  0  0  0  0
    8.6394   -1.1675    2.5967 C   0  0  0  0  0  0
    8.0507   -2.1354    3.4077 C   0  0  0  0  0  0
    7.0793   -2.9810    2.8778 C   0  0  0  0  0  0
   -2.3111    2.5563    0.3433 C   0  0  0  0  0  0
   -1.6286    3.7953   -0.2152 C   0  0  0  0  0  0
   -0.8075    3.3557    1.7996 H   0  0  0  0  0  0
    1.1859    2.7049    0.4512 H   0  0  0  0  0  0
    0.1864    1.7876   -0.6627 H   0  0  0  0  0  0
    5.8940   -4.8077    1.2463 H   0  0  0  0  0  0
    5.6412   -3.7761   -0.1284 H   0  0  0  0  0  0
    7.0148   -1.7847   -0.3083 H   0  0  0  0  0  0
    8.7307   -0.2882    0.6372 H   0  0  0  0  0  0
    9.3926   -0.5111    3.0076 H   0  0  0  0  0  0
    8.3460   -2.2297    4.4424 H   0  0  0  0  0  0
    6.6229   -3.7309    3.5076 H   0  0  0  0  0  0
   -2.4303    1.6802   -0.2950 H   0  0  0  0  0  0
   -3.1365    2.6740    1.0456 H   0  0  0  0  0  0
   -1.2746    3.7873   -1.2466 H   0  0  0  0  0  0
   -1.9776    4.7801    0.0962 H   0  0  0  0  0  0
    1.8831   -1.6962    2.0336 H   0  0  0  0  0  0
  1  2  1  0  0  0
  1 19  1  0  0  0
  1 20  1  0  0  0
  1 21  1  0  0  0
  2  3  1  0  0  0
  2 22  1  0  0  0
  2 23  1  0  0  0
  3  4  1  0  0  0
  4  9  1  0  0  0
  4  5  2  0  0  0
  5  6  1  0  0  0
  6 10  2  0  0  0
  6  7  1  0  0  0
  7  8  2  0  0  0
  8 11  1  0  0  0
  8  9  1  0  0  0
  9 35  1  0  0  0
 11 12  1  0  0  0
 12 13  1  0  0  0
 12 24  1  0  0  0
 12 25  1  0  0  0
 13 14  2  0  0  0
 13 18  1  0  0  0
 14 15  1  0  0  0
 14 26  1  0  0  0
 15 16  2  0  0  0
 15 27  1  0  0  0
 16 17  1  0  0  0
 16 28  1  0  0  0
 17 18  2  0  0  0
 17 29  1  0  0  0
 18 30  1  0  0  0
 19 20  1  0  0  0
 19 31  1  0  0  0
 19 32  1  0  0  0
 20 33  1  0  0  0
 20 34  1  0  0  0
M  END
> <chembl_id>
CHEMBL1836516

> <chembl_pref_name>
None

> <s_m_source_file>
sdf/inactives_sanitized.sdf

> <i_m_source_file_index>
173

> <i_lp_mmshare_version>
49012

> <i_m_ct_stereo_status>
1

> <i_f3d_flags>
0

> <s_epik_input>
W0NIMl0xW0NIMl1bQ0hdMVtDSDJdU2MyW25IXWMoPU8pbmMobjIpU1tDSDJdYzNbY0hdW2NIXVtjSF1bY0hdW2NIXTM=

> <s_epik_cmdline>
J2VwaWtfcHl0aG9uJywgJy1waHQnLCAnMC41JywgJy1waCcsICc3LjUnLCAnLW50JywgJy1tYScsICcyMDAnLCAnLWltYWUnLCAnPGluZmlsZS5tYWU+JywgJy1vbWFlJywgJzxvdXRmaWxlLm1hZT4n

> <r_lp_tautomer_probability>
0.000308339100536342

> <r_epik_Ionization_Penalty>
  0.5880

> <r_epik_Ionization_Penalty_Charging>
  0.5860

> <r_epik_Ionization_Penalty_Neutral>
  0.0020

> <r_epik_State_Penalty>
  0.4278

> <r_epik_Charging_Adjusted_Penalty>
1.01380151224271

> <i_epik_Tot_Q>
0

> <i_epik_Tot_abs_Q>
0

> <s_lp_Force_Field>
OPLS3e

> <r_lp_Energy>
35.016372

> <b_lp_Chiralities_Consistent>
1

> <s_lp_Variant>
sdf/inactives_sanitized.sdf:173-1

$$$$
sdf/inactives_sanitized.sdf:173
                    3D
 Schrodinger Suite 2020-1.
 35 37  0  0  1  0            999 V2000
   -1.9476    2.3379    0.3777 C   0  0  0  0  0  0
   -0.5324    1.7426    0.3979 C   0  0  0  0  0  0
    0.5725    2.4655   -0.8536 S   0  0  0  0  0  0
    2.0955    1.5514   -0.5479 C   0  0  0  0  0  0
    2.1905    0.5349    0.3843 N   0  0  0  0  0  0
    3.3412   -0.1850    0.5900 C   0  0  0  0  0  0
    4.4758    0.2197   -0.1564 N   0  0  0  0  0  0
    4.3364    1.2000   -0.9891 C   0  0  0  0  0  0
    3.1262    1.8467   -1.2790 N   0  0  0  0  0  0
    3.2548   -1.0946    1.4114 O   0  0  0  0  0  0
    5.8627    1.7676   -1.7736 S   0  0  0  0  0  0
    5.2925    3.0885   -2.9008 C   0  0  0  0  0  0
    4.6394    2.5426   -4.1653 C   0  0  0  0  0  0
    5.4161    1.8705   -5.1140 C   0  0  0  0  0  0
    4.8265    1.3797   -6.2760 C   0  0  0  0  0  0
    3.4627    1.5675   -6.4900 C   0  0  0  0  0  0
    2.6836    2.2440   -5.5537 C   0  0  0  0  0  0
    3.2734    2.7360   -4.3924 C   0  0  0  0  0  0
   -2.2327    3.6529    1.0556 C   0  0  0  0  0  0
   -2.7709    2.3559    1.6395 C   0  0  0  0  0  0
   -2.4784    2.1067   -0.5467 H   0  0  0  0  0  0
   -0.6009    0.6669    0.2313 H   0  0  0  0  0  0
   -0.0806    1.8901    1.3804 H   0  0  0  0  0  0
    4.6440    3.7934   -2.3785 H   0  0  0  0  0  0
    6.1696    3.6645   -3.1977 H   0  0  0  0  0  0
    6.4741    1.7252   -4.9498 H   0  0  0  0  0  0
    5.4239    0.8566   -7.0083 H   0  0  0  0  0  0
    3.0052    1.1869   -7.3914 H   0  0  0  0  0  0
    1.6275    2.3881   -5.7281 H   0  0  0  0  0  0
    2.6661    3.2641   -3.6717 H   0  0  0  0  0  0
   -1.4156    4.1681    1.5620 H   0  0  0  0  0  0
   -2.9225    4.3441    0.5707 H   0  0  0  0  0  0
   -2.3338    1.9645    2.5586 H   0  0  0  0  0  0
   -3.8374    2.1422    1.5640 H   0  0  0  0  0  0
    1.3801    0.2711    0.9244 H   0  0  0  0  0  0
  1  2  1  0  0  0
  1 19  1  0  0  0
  1 20  1  0  0  0
  1 21  1  0  0  0
  2  3  1  0  0  0
  2 22  1  0  0  0
  2 23  1  0  0  0
  3  4  1  0  0  0
  4  9  2  0  0  0
  4  5  1  0  0  0
  5  6  1  0  0  0
  5 35  1  0  0  0
  6 10  2  0  0  0
  6  7  1  0  0  0
  7  8  2  0  0  0
  8 11  1  0  0  0
  8  9  1  0  0  0
 11 12  1  0  0  0
 12 13  1  0  0  0
 12 24  1  0  0  0
 12 25  1  0  0  0
 13 14  2  0  0  0
 13 18  1  0  0  0
 14 15  1  0  0  0
 14 26  1  0  0  0
 15 16  2  0  0  0
 15 27  1  0  0  0
 16 17  1  0  0  0
 16 28  1  0  0  0
 17 18  2  0  0  0
 17 29  1  0  0  0
 18 30  1  0  0  0
 19 20  1  0  0  0
 19 31  1  0  0  0
 19 32  1  0  0  0
 20 33  1  0  0  0
 20 34  1  0  0  0
M  END
> <chembl_id>
CHEMBL1836516

> <chembl_pref_name>
None

> <s_m_source_file>
sdf/inactives_sanitized.sdf

> <i_m_source_file_index>
173

> <i_lp_mmshare_version>
49012

> <i_m_ct_stereo_status>
1

> <i_f3d_flags>
0

> <s_epik_input>
W0NIMl0xW0NIMl1bQ0hdMVtDSDJdU2MyW25IXWMoPU8pbmMobjIpU1tDSDJdYzNbY0hdW2NIXVtjSF1bY0hdW2NIXTM=

> <s_epik_cmdline>
J2VwaWtfcHl0aG9uJywgJy1waHQnLCAnMC41JywgJy1waCcsICc3LjUnLCAnLW50JywgJy1tYScsICcyMDAnLCAnLWltYWUnLCAnPGluZmlsZS5tYWU+JywgJy1vbWFlJywgJzxvdXRmaWxlLm1hZT4n

> <r_lp_tautomer_probability>
0.986814540016624

> <r_epik_Ionization_Penalty>
  0.4946

> <r_epik_Ionization_Penalty_Charging>
  0.0015

> <r_epik_Ionization_Penalty_Neutral>
  0.4931

> <r_epik_State_Penalty>
  0.5698

> <r_epik_Charging_Adjusted_Penalty>
0.571330004997392

> <i_epik_Tot_Q>
0

> <i_epik_Tot_abs_Q>
0

> <s_lp_Force_Field>
OPLS3e

> <r_lp_Energy>
35.090279

> <b_lp_Chiralities_Consistent>
1

> <s_lp_Variant>
sdf/inactives_sanitized.sdf:173-2

$$$$
sdf/inactives_sanitized.sdf:174
                    3D
 Schrodinger Suite 2020-1.
 64 68  0  0  1  0            999 V2000
   -2.7028   -3.0886    0.4892 C   0  0  0  0  0  0
   -2.8646   -1.5980    0.1014 C   0  0  0  0  0  0
   -4.3495   -1.2020   -0.0670 C   0  0  0  0  0  0
   -2.2515   -0.6784    1.2078 C   0  0  0  0  0  0
   -0.7088   -0.7840    1.2707 C   0  0  0  0  0  0
   -0.1027   -0.3601   -0.0930 C   0  0  0  0  0  0
   -0.6035   -1.4016   -1.1271 C   0  0  0  0  0  0
   -2.1416   -1.3031   -1.2538 C   0  0  0  0  0  0
    1.4588   -0.1966   -0.0915 C   0  0  2  0  0  0
    1.9507    0.5489    1.0753 N   0  0  0  0  0  0
    2.5716    0.0279    2.1518 C   0  0  0  0  0  0
    2.8288   -1.1719    2.2702 O   0  0  0  0  0  0
    2.9782    1.0136    3.2220 C   0  0  0  0  0  0
    4.0613    0.7238    4.0638 C   0  0  0  0  0  0
    4.4497    1.6204    5.0578 C   0  0  0  0  0  0
    3.7578    2.8172    5.2305 C   0  0  0  0  0  0
    2.6659    3.1252    4.4082 C   0  0  0  0  0  0
    2.2832    2.2204    3.4090 C   0  0  0  0  0  0
    1.9461    4.3298    4.5810 N   0  0  0  0  0  0
    0.6227    4.6001    4.3099 C   0  0  0  0  0  0
    0.3238    5.8391    4.6058 N   0  0  0  0  0  0
    1.5057    6.3896    5.0893 N   0  0  0  0  0  0
    2.5132    5.4434    5.0730 N   0  0  0  0  0  0
    2.0459    0.4486   -1.3828 C   0  0  0  0  0  0
    1.2647    0.9949   -2.1651 O   0  0  0  0  0  0
    3.3931    0.4454   -1.5902 N   0  0  0  0  0  0
    4.3445   -0.3082   -0.7497 C   0  0  0  0  0  0
    5.4937   -0.6091   -1.7091 C   0  0  2  0  0  0
    7.0354   -0.6962   -0.8149 Cl  0  0  0  0  0  0
    5.4950    0.5780   -2.6633 C   0  0  1  0  0  0
    6.0248    0.3278   -3.9549 O   0  0  0  0  0  0
    5.0010   -0.2183   -4.7716 C   0  0  0  0  0  0
    3.6827    0.2611   -4.1816 C   0  0  0  0  0  0
    2.5666    0.0889   -4.6676 O   0  0  0  0  0  0
    4.0228    0.9298   -2.8445 C   0  0  1  0  0  0
   -1.6634   -3.3898    0.6121 H   0  0  0  0  0  0
   -3.1376   -3.7403   -0.2697 H   0  0  0  0  0  0
   -3.2121   -3.3063    1.4288 H   0  0  0  0  0  0
   -4.4674   -0.1480   -0.3235 H   0  0  0  0  0  0
   -4.9130   -1.3787    0.8502 H   0  0  0  0  0  0
   -4.8278   -1.7836   -0.8563 H   0  0  0  0  0  0
   -2.5110    0.3639    1.0111 H   0  0  0  0  0  0
   -2.6922   -0.9043    2.1801 H   0  0  0  0  0  0
   -0.3597   -0.1211    2.0621 H   0  0  0  0  0  0
   -0.3486   -1.7663    1.5788 H   0  0  0  0  0  0
   -0.5125    0.6241   -0.3330 H   0  0  0  0  0  0
   -0.1668   -1.2006   -2.1052 H   0  0  0  0  0  0
   -0.2477   -2.4048   -0.8896 H   0  0  0  0  0  0
   -2.3905   -0.2975   -1.5994 H   0  0  0  0  0  0
   -2.5055   -1.9731   -2.0343 H   0  0  0  0  0  0
    1.8438   -1.2166   -0.0575 H   0  0  0  0  0  0
    1.7942    1.5456    1.0429 H   0  0  0  0  0  0
    4.6164   -0.1972    3.9514 H   0  0  0  0  0  0
    5.2884    1.3861    5.6970 H   0  0  0  0  0  0
    4.0725    3.4953    6.0110 H   0  0  0  0  0  0
    1.4395    2.4590    2.7768 H   0  0  0  0  0  0
   -0.0373    3.8429    3.9129 H   0  0  0  0  0  0
    4.7292    0.3405    0.0386 H   0  0  0  0  0  0
    3.9707   -1.2575   -0.3661 H   0  0  0  0  0  0
    5.3010   -1.5412   -2.2429 H   0  0  0  0  0  0
    6.0225    1.4244   -2.2186 H   0  0  0  0  0  0
    5.1196    0.1031   -5.8063 H   0  0  0  0  0  0
    5.0430   -1.3074   -4.7419 H   0  0  0  0  0  0
    3.8947    2.0084   -2.9445 H   0  0  0  0  0  0
  1  2  1  0  0  0
  1 36  1  0  0  0
  1 37  1  0  0  0
  1 38  1  0  0  0
  2  3  1  0  0  0
  2  4  1  0  0  0
  2  8  1  0  0  0
  3 39  1  0  0  0
  3 40  1  0  0  0
  3 41  1  0  0  0
  4  5  1  0  0  0
  4 42  1  0  0  0
  4 43  1  0  0  0
  5  6  1  0  0  0
  5 44  1  0  0  0
  5 45  1  0  0  0
  6  7  1  0  0  0
  6  9  1  0  0  0
  6 46  1  0  0  0
  7  8  1  0  0  0
  7 47  1  0  0  0
  7 48  1  0  0  0
  8 49  1  0  0  0
  8 50  1  0  0  0
  9 10  1  0  0  0
  9 24  1  0  0  0
  9 51  1  0  0  0
 10 11  1  0  0  0
 10 52  1  0  0  0
 11 12  2  0  0  0
 11 13  1  0  0  0
 13 14  2  0  0  0
 13 18  1  0  0  0
 14 15  1  0  0  0
 14 53  1  0  0  0
 15 16  2  0  0  0
 15 54  1  0  0  0
 16 17  1  0  0  0
 16 55  1  0  0  0
 17 18  2  0  0  0
 17 19  1  0  0  0
 18 56  1  0  0  0
 19 20  1  0  0  0
 19 23  1  0  0  0
 20 21  2  0  0  0
 20 57  1  0  0  0
 21 22  1  0  0  0
 22 23  2  0  0  0
 24 25  2  0  0  0
 24 26  1  0  0  0
 26 27  1  0  0  0
 26 35  1  0  0  0
 27 28  1  0  0  0
 27 58  1  0  0  0
 27 59  1  0  0  0
 28 29  1  0  0  0
 28 30  1  0  0  0
 28 60  1  0  0  0
 30 31  1  0  0  0
 30 35  1  0  0  0
 30 61  1  0  0  0
 31 32  1  0  0  0
 32 33  1  0  0  0
 32 62  1  0  0  0
 32 63  1  0  0  0
 33 34  2  0  0  0
 33 35  1  0  0  0
 35 64  1  0  0  0
M  END
> <chembl_id>
CHEMBL3648410

> <chembl_pref_name>
None

> <i_m_ct_stereo_status>
1

> <s_m_source_file>
sdf/inactives_sanitized.sdf

> <i_m_source_file_index>
174

> <i_lp_mmshare_version>
49012

> <i_f3d_flags>
0

> <s_epik_input>
TzFbQ0gyXUMoPU8pW0NASF0oW0NASF0xMilOKFtDSDJdW0NAQEhdMkNsKUMoPU8pW0NASF0oW0NIXShbQ0gyXVtDSDJdMylbQ0gyXVtDSDJdQzMoW0NIM10pW0NIM10pW05IXUMoPU8pYzRbY0hdW2NIXVtjSF1jKFtjSF00KS1uNVtjSF1ubm41

> <s_epik_cmdline>
J2VwaWtfcHl0aG9uJywgJy1waHQnLCAnMC41JywgJy1waCcsICc3LjUnLCAnLW50JywgJy1tYScsICcyMDAnLCAnLWltYWUnLCAnPGluZmlsZS5tYWU+JywgJy1vbWFlJywgJzxvdXRmaWxlLm1hZT4n

> <r_lp_tautomer_probability>
1

> <r_epik_Ionization_Penalty>
  0.0000

> <r_epik_Ionization_Penalty_Charging>
  0.0000

> <r_epik_Ionization_Penalty_Neutral>
  0.0000

> <r_epik_State_Penalty>
 -0.0000

> <r_epik_Charging_Adjusted_Penalty>
0

> <i_epik_Tot_Q>
0

> <i_epik_Tot_abs_Q>
0

> <s_lp_Force_Field>
OPLS3e

> <r_lp_Energy>
42.13675

> <b_lp_Chiralities_Consistent>
1

> <s_lp_Variant>
sdf/inactives_sanitized.sdf:174-1

$$$$
sdf/inactives_sanitized.sdf:175
                    3D
 Schrodinger Suite 2020-1.
 35 36  0  0  1  0            999 V2000
    0.0232    0.2406   -0.0231 C   0  0  0  0  0  0
    1.5239    0.0888   -0.0160 C   0  0  0  0  0  0
    2.2580   -0.1254    1.1687 C   0  0  0  0  0  0
    3.6425   -0.2884    1.0989 C   0  0  0  0  0  0
    4.2995   -0.2535   -0.1288 C   0  0  0  0  0  0
    3.5862   -0.0595   -1.3190 C   0  0  0  0  0  0
    2.1955    0.1034   -1.2445 C   0  0  0  0  0  0
   -0.6711   -0.7531   -0.2446 O   0  0  0  0  0  0
   -0.4853    1.4757    0.2301 N   0  0  0  0  0  0
    4.2853   -0.0293   -2.6269 N   0  3  0  0  0  0
    3.6216    0.1422   -3.6457 O   0  0  0  0  0  0
    5.5042   -0.1778   -2.6457 O   0  5  0  0  0  0
    1.7115   -0.1657    2.3192 O   0  5  0  0  0  0
    0.3565    2.6643    0.4306 C   0  0  0  0  0  0
    0.7640    3.2923   -0.8386 C   0  0  0  0  0  0
    1.0841    3.7854   -1.8351 N   0  0  0  0  0  0
   -1.9178    1.7638    0.0479 C   0  0  0  0  0  0
   -2.2737    2.4199   -1.2817 C   0  0  0  0  0  0
   -2.9062    3.6659   -1.2884 C   0  0  0  0  0  0
   -3.2329    4.2739   -2.4977 C   0  0  0  0  0  0
   -2.9294    3.6326   -3.6968 C   0  0  0  0  0  0
   -2.3057    2.3870   -3.6978 C   0  0  0  0  0  0
   -1.9811    1.7773   -2.4890 C   0  0  0  0  0  0
    4.2217   -0.4452    1.9982 H   0  0  0  0  0  0
    5.3719   -0.3828   -0.1453 H   0  0  0  0  0  0
    1.6276    0.2510   -2.1533 H   0  0  0  0  0  0
    1.2688    2.4240    0.9763 H   0  0  0  0  0  0
   -0.1725    3.4054    1.0303 H   0  0  0  0  0  0
   -2.2393    2.4076    0.8675 H   0  0  0  0  0  0
   -2.5173    0.8570    0.1443 H   0  0  0  0  0  0
   -3.1397    4.1675   -0.3605 H   0  0  0  0  0  0
   -3.7186    5.2385   -2.5066 H   0  0  0  0  0  0
   -3.1808    4.1053   -4.6347 H   0  0  0  0  0  0
   -2.0745    1.8962   -4.6317 H   0  0  0  0  0  0
   -1.4992    0.8107   -2.4945 H   0  0  0  0  0  0
  1  2  1  0  0  0
  1  8  2  0  0  0
  1  9  1  0  0  0
  2  3  2  0  0  0
  2  7  1  0  0  0
  3  4  1  0  0  0
  3 13  1  0  0  0
  4  5  2  0  0  0
  4 24  1  0  0  0
  5  6  1  0  0  0
  5 25  1  0  0  0
  6  7  2  0  0  0
  6 10  1  0  0  0
  7 26  1  0  0  0
  9 14  1  0  0  0
  9 17  1  0  0  0
 10 11  2  0  0  0
 10 12  1  0  0  0
 14 15  1  0  0  0
 14 27  1  0  0  0
 14 28  1  0  0  0
 15 16  3  0  0  0
 17 18  1  0  0  0
 17 29  1  0  0  0
 17 30  1  0  0  0
 18 19  2  0  0  0
 18 23  1  0  0  0
 19 20  1  0  0  0
 19 31  1  0  0  0
 20 21  2  0  0  0
 20 32  1  0  0  0
 21 22  1  0  0  0
 21 33  1  0  0  0
 22 23  2  0  0  0
 22 34  1  0  0  0
 23 35  1  0  0  0
M  CHG  3  10   1  12  -1  13  -1
M  END
> <chembl_id>
CHEMBL4228452

> <chembl_pref_name>
None

> <s_m_source_file>
sdf/inactives_sanitized.sdf

> <i_m_source_file_index>
175

> <i_lp_mmshare_version>
49012

> <i_m_ct_stereo_status>
1

> <i_f3d_flags>
0

> <s_epik_input>
Tz1bTitdKFtPLV0pYyhbY0hdMSlbY0hdW2NIXWMoW09IXSljMUMoPU8pTihbQ0gyXUMjTilbQ0gyXWMyW2NIXVtjSF1bY0hdW2NIXVtjSF0y

> <s_epik_cmdline>
J2VwaWtfcHl0aG9uJywgJy1waHQnLCAnMC41JywgJy1waCcsICc3LjUnLCAnLW50JywgJy1tYScsICcyMDAnLCAnLWltYWUnLCAnPGluZmlsZS5tYWU+JywgJy1vbWFlJywgJzxvdXRmaWxlLm1hZT4n

> <r_lp_tautomer_probability>
1

> <r_epik_Ionization_Penalty>
  0.0009

> <r_epik_Ionization_Penalty_Charging>
  0.0009

> <r_epik_Ionization_Penalty_Neutral>
  0.0000

> <r_epik_State_Penalty>
 -0.0000

> <r_epik_Charging_Adjusted_Penalty>
0.000872676429766709

> <i_epik_Tot_Q>
-1

> <i_epik_Tot_abs_Q>
3

> <s_lp_Force_Field>
OPLS3e

> <r_lp_Energy>
38.655337

> <b_lp_Chiralities_Consistent>
1

> <s_lp_Variant>
sdf/inactives_sanitized.sdf:175-1

$$$$
sdf/inactives_sanitized.sdf:176
                    3D
 Schrodinger Suite 2020-1.
 22 23  0  0  1  0            999 V2000
   -0.6104    1.1983   -0.0064 N   0  0  0  0  0  0
    0.0164    0.0002   -0.0447 C   0  0  0  0  0  0
   -0.6583   -1.2141   -0.0737 C   0  0  0  0  0  0
   -2.0484   -1.2017   -0.0552 C   0  0  0  0  0  0
   -2.7556    0.0346   -0.0034 C   0  0  0  0  0  0
   -4.1796    0.1159    0.0243 C   0  0  0  0  0  0
   -4.7903    1.3678    0.0320 C   0  0  0  0  0  0
   -4.0594    2.5540    0.0307 C   0  0  0  0  0  0
   -2.6538    2.5086    0.0312 C   0  0  0  0  0  0
   -1.9815    1.2418    0.0078 C   0  0  0  0  0  0
    1.4690    0.0542   -0.0586 C   0  0  0  0  0  0
    2.6256    0.0960   -0.0697 N   0  0  0  0  0  0
   -4.8051    3.8309    0.0367 N   0  3  0  0  0  0
   -5.7085    3.9605    0.8574 O   0  0  0  0  0  0
   -4.5097    4.6851   -0.7936 O   0  5  0  0  0  0
   -5.0341   -1.0853    0.0459 N   0  3  0  0  0  0
   -5.9102   -1.1778   -0.8079 O   0  0  0  0  0  0
   -4.8470   -1.9130    0.9319 O   0  5  0  0  0  0
   -1.9825    3.5949    0.0687 O   0  5  0  0  0  0
   -0.1253   -2.1540   -0.1103 H   0  0  0  0  0  0
   -2.5825   -2.1391   -0.0859 H   0  0  0  0  0  0
   -5.8704    1.4192    0.0425 H   0  0  0  0  0  0
  1  2  2  0  0  0
  1 10  1  0  0  0
  2  3  1  0  0  0
  2 11  1  0  0  0
  3  4  2  0  0  0
  3 20  1  0  0  0
  4  5  1  0  0  0
  4 21  1  0  0  0
  5  6  2  0  0  0
  5 10  1  0  0  0
  6  7  1  0  0  0
  6 16  1  0  0  0
  7  8  2  0  0  0
  7 22  1  0  0  0
  8  9  1  0  0  0
  8 13  1  0  0  0
  9 10  2  0  0  0
  9 19  1  0  0  0
 11 12  3  0  0  0
 13 14  2  0  0  0
 13 15  1  0  0  0
 16 17  2  0  0  0
 16 18  1  0  0  0
M  CHG  5  13   1  15  -1  16   1  18  -1  19  -1
M  END
> <chembl_id>
CHEMBL4226671

> <chembl_pref_name>
None

> <s_m_source_file>
sdf/inactives_sanitized.sdf

> <i_m_source_file_index>
176

> <i_lp_mmshare_version>
49012

> <i_m_ct_stereo_status>
1

> <i_f3d_flags>
0

> <s_epik_input>
W2NIXTFbY0hdYyhDI04pbmMoYzEyKWMoW09IXSljKFtOK10oPU8pW08tXSlbY0hdYzJbTitdKD1PKVtPLV0=

> <s_epik_cmdline>
J2VwaWtfcHl0aG9uJywgJy1waHQnLCAnMC41JywgJy1waCcsICc3LjUnLCAnLW50JywgJy1tYScsICcyMDAnLCAnLWltYWUnLCAnPGluZmlsZS5tYWU+JywgJy1vbWFlJywgJzxvdXRmaWxlLm1hZT4n

> <r_lp_tautomer_probability>
1

> <r_epik_Ionization_Penalty>
  0.0000

> <r_epik_Ionization_Penalty_Charging>
  0.0000

> <r_epik_Ionization_Penalty_Neutral>
  0.0000

> <r_epik_State_Penalty>
 -0.0000

> <r_epik_Charging_Adjusted_Penalty>
8.85545384616917e-08

> <i_epik_Tot_Q>
-1

> <i_epik_Tot_abs_Q>
5

> <s_lp_Force_Field>
OPLS3e

> <r_lp_Energy>
28.193789

> <b_lp_Chiralities_Consistent>
1

> <s_lp_Variant>
sdf/inactives_sanitized.sdf:176-1

$$$$
sdf/inactives_sanitized.sdf:177
                    3D
 Schrodinger Suite 2020-1.
 32 33  0  0  1  0            999 V2000
   -0.6744   -1.2048   -0.0868 N   0  0  0  0  0  0
   -0.0422   -0.0070   -0.0658 C   0  0  0  0  0  0
   -0.7189    1.2042    0.0285 C   0  0  0  0  0  0
   -2.1080    1.1915    0.0710 C   0  0  0  0  0  0
   -2.8166   -0.0434    0.0241 C   0  0  0  0  0  0
   -4.2405   -0.1250    0.0540 C   0  0  0  0  0  0
   -4.8513   -1.3766    0.0490 C   0  0  0  0  0  0
   -4.1214   -2.5625   -0.0009 C   0  0  0  0  0  0
   -2.7170   -2.5161   -0.0603 C   0  0  0  0  0  0
   -2.0442   -1.2493   -0.0424 C   0  0  0  0  0  0
    1.4577   -0.0412   -0.0964 C   0  0  0  0  0  0
    2.0728   -0.0219    0.9715 O   0  0  0  0  0  0
    2.0579   -0.0776   -1.3141 N   0  0  0  0  0  0
   -4.8676   -3.8393    0.0032 N   0  3  0  0  0  0
   -5.8081   -3.9536   -0.7772 O   0  0  0  0  0  0
   -4.5356   -4.7088    0.8031 O   0  5  0  0  0  0
   -5.0949    1.0760    0.0880 N   0  3  0  0  0  0
   -5.9362    1.1531    0.9777 O   0  0  0  0  0  0
   -4.9440    1.9185   -0.7909 O   0  5  0  0  0  0
    3.5097    0.0560   -1.4572 C   0  0  0  0  0  0
   -2.0479   -3.6009   -0.1483 O   0  5  0  0  0  0
    1.3291   -0.0297   -2.5872 C   0  0  0  0  0  0
    1.1463    1.3510   -3.0657 C   0  0  0  0  0  0
    1.0029    2.4360   -3.4408 N   0  0  0  0  0  0
   -0.1848    2.1435    0.0629 H   0  0  0  0  0  0
   -2.6400    2.1275    0.1468 H   0  0  0  0  0  0
   -5.9310   -1.4276    0.0817 H   0  0  0  0  0  0
    4.0445   -0.0230   -0.5097 H   0  0  0  0  0  0
    3.7549    1.0208   -1.9018 H   0  0  0  0  0  0
    3.8920   -0.7245   -2.1154 H   0  0  0  0  0  0
    0.3382   -0.4772   -2.5116 H   0  0  0  0  0  0
    1.8642   -0.5961   -3.3502 H   0  0  0  0  0  0
  1  2  2  0  0  0
  1 10  1  0  0  0
  2  3  1  0  0  0
  2 11  1  0  0  0
  3  4  2  0  0  0
  3 25  1  0  0  0
  4  5  1  0  0  0
  4 26  1  0  0  0
  5  6  2  0  0  0
  5 10  1  0  0  0
  6  7  1  0  0  0
  6 17  1  0  0  0
  7  8  2  0  0  0
  7 27  1  0  0  0
  8  9  1  0  0  0
  8 14  1  0  0  0
  9 10  2  0  0  0
  9 21  1  0  0  0
 11 12  2  0  0  0
 11 13  1  0  0  0
 13 20  1  0  0  0
 13 22  1  0  0  0
 14 15  2  0  0  0
 14 16  1  0  0  0
 17 18  2  0  0  0
 17 19  1  0  0  0
 20 28  1  0  0  0
 20 29  1  0  0  0
 20 30  1  0  0  0
 22 23  1  0  0  0
 22 31  1  0  0  0
 22 32  1  0  0  0
 23 24  3  0  0  0
M  CHG  5  14   1  16  -1  17   1  19  -1  21  -1
M  END
> <chembl_id>
CHEMBL4227299

> <chembl_pref_name>
None

> <s_m_source_file>
sdf/inactives_sanitized.sdf

> <i_m_source_file_index>
177

> <i_lp_mmshare_version>
49012

> <i_m_ct_stereo_status>
1

> <i_f3d_flags>
0

> <s_epik_input>
TiNDW0NIMl1OKFtDSDNdKUMoPU8pYyhbY0hdW2NIXTEpbmMoYzEyKWMoW09IXSljKFtOK10oPU8pW08tXSlbY0hdYzJbTitdKD1PKVtPLV0=

> <s_epik_cmdline>
J2VwaWtfcHl0aG9uJywgJy1waHQnLCAnMC41JywgJy1waCcsICc3LjUnLCAnLW50JywgJy1tYScsICcyMDAnLCAnLWltYWUnLCAnPGluZmlsZS5tYWU+JywgJy1vbWFlJywgJzxvdXRmaWxlLm1hZT4n

> <r_lp_tautomer_probability>
1

> <r_epik_Ionization_Penalty>
  0.0000

> <r_epik_Ionization_Penalty_Charging>
  0.0000

> <r_epik_Ionization_Penalty_Neutral>
  0.0000

> <r_epik_State_Penalty>
 -0.0000

> <r_epik_Charging_Adjusted_Penalty>
2.00183113863984e-07

> <i_epik_Tot_Q>
-1

> <i_epik_Tot_abs_Q>
5

> <s_lp_Force_Field>
OPLS3e

> <r_lp_Energy>
42.768811

> <b_lp_Chiralities_Consistent>
1

> <s_lp_Variant>
sdf/inactives_sanitized.sdf:177-1

$$$$
sdf/inactives_sanitized.sdf:178
                    3D
 Schrodinger Suite 2020-1.
 31 33  0  0  1  0            999 V2000
   -0.7007   -1.2404   -0.1644 N   0  0  0  0  0  0
   -0.0226   -0.0624   -0.1013 C   0  0  0  0  0  0
   -0.6890    1.1585    0.0197 C   0  0  0  0  0  0
   -2.0784    1.1788    0.0674 C   0  0  0  0  0  0
   -2.8166   -0.0345   -0.0091 C   0  0  0  0  0  0
   -4.2459   -0.0874    0.0299 C   0  0  0  0  0  0
   -4.8833   -1.3277   -0.0079 C   0  0  0  0  0  0
   -4.1615   -2.5089   -0.1023 C   0  0  0  0  0  0
   -2.7705   -2.4981   -0.1613 C   0  0  0  0  0  0
   -2.0689   -1.2525   -0.1141 C   0  0  0  0  0  0
    1.4910   -0.1047   -0.1634 C   0  0  0  0  0  0
    2.1582    0.9246   -0.0377 O   0  0  0  0  0  0
    2.0616   -1.3105   -0.3571 N   0  0  0  0  0  0
   -5.0742    1.1300    0.1050 N   0  3  0  0  0  0
   -5.9145    1.1949    0.9966 O   0  0  0  0  0  0
   -4.9049    1.9989   -0.7444 O   0  5  0  0  0  0
   -2.1668   -3.6165   -0.2518 O   0  5  0  0  0  0
    3.4990   -1.5323   -0.4912 C   0  0  0  0  0  0
    4.3767   -1.3069    0.7268 C   0  0  0  0  0  0
    4.1100   -2.7077    0.2416 C   0  0  0  0  0  0
    4.0641   -1.1503   -1.7975 C   0  0  0  0  0  0
    4.5081   -0.8506   -2.8233 N   0  0  0  0  0  0
   -0.1469    2.0920    0.0752 H   0  0  0  0  0  0
   -2.5873    2.1250    0.1695 H   0  0  0  0  0  0
   -5.9623   -1.3781    0.0259 H   0  0  0  0  0  0
   -4.7011   -3.4453   -0.1342 H   0  0  0  0  0  0
    1.4608   -2.0911   -0.5803 H   0  0  0  0  0  0
    5.3721   -0.8846    0.5860 H   0  0  0  0  0  0
    3.9161   -0.9839    1.6612 H   0  0  0  0  0  0
    4.9212   -3.2584   -0.2354 H   0  0  0  0  0  0
    3.4658   -3.3516    0.8413 H   0  0  0  0  0  0
  1  2  2  0  0  0
  1 10  1  0  0  0
  2  3  1  0  0  0
  2 11  1  0  0  0
  3  4  2  0  0  0
  3 23  1  0  0  0
  4  5  1  0  0  0
  4 24  1  0  0  0
  5  6  2  0  0  0
  5 10  1  0  0  0
  6  7  1  0  0  0
  6 14  1  0  0  0
  7  8  2  0  0  0
  7 25  1  0  0  0
  8  9  1  0  0  0
  8 26  1  0  0  0
  9 10  2  0  0  0
  9 17  1  0  0  0
 11 12  2  0  0  0
 11 13  1  0  0  0
 13 18  1  0  0  0
 13 27  1  0  0  0
 14 15  2  0  0  0
 14 16  1  0  0  0
 18 19  1  0  0  0
 18 20  1  0  0  0
 18 21  1  0  0  0
 19 20  1  0  0  0
 19 28  1  0  0  0
 19 29  1  0  0  0
 20 30  1  0  0  0
 20 31  1  0  0  0
 21 22  3  0  0  0
M  CHG  3  14   1  16  -1  17  -1
M  END
> <chembl_id>
CHEMBL4228583

> <chembl_pref_name>
None

> <s_m_source_file>
sdf/inactives_sanitized.sdf

> <i_m_source_file_index>
178

> <i_lp_mmshare_version>
49012

> <i_m_ct_stereo_status>
1

> <i_f3d_flags>
0

> <s_epik_input>
W0NIMl0xW0NIMl1DMShDI04pW05IXUMoPU8pYyhbY0hdW2NIXTIpbmMoYzIzKWMoW09IXSlbY0hdW2NIXWMzW04rXSg9TylbTy1d

> <s_epik_cmdline>
J2VwaWtfcHl0aG9uJywgJy1waHQnLCAnMC41JywgJy1waCcsICc3LjUnLCAnLW50JywgJy1tYScsICcyMDAnLCAnLWltYWUnLCAnPGluZmlsZS5tYWU+JywgJy1vbWFlJywgJzxvdXRmaWxlLm1hZT4n

> <r_lp_tautomer_probability>
1

> <r_epik_Ionization_Penalty>
  0.0002

> <r_epik_Ionization_Penalty_Charging>
  0.0002

> <r_epik_Ionization_Penalty_Neutral>
  0.0000

> <r_epik_State_Penalty>
 -0.0000

> <r_epik_Charging_Adjusted_Penalty>
0.00020558283223173

> <i_epik_Tot_Q>
-1

> <i_epik_Tot_abs_Q>
3

> <s_lp_Force_Field>
OPLS3e

> <r_lp_Energy>
31.969621

> <b_lp_Chiralities_Consistent>
1

> <s_lp_Variant>
sdf/inactives_sanitized.sdf:178-1

$$$$
sdf/inactives_sanitized.sdf:179
                    3D
 Schrodinger Suite 2020-1.
 22 22  0  0  1  0            999 V2000
    0.0321    0.2061    0.0545 C   0  0  0  0  0  0
    1.5598    0.1834    0.0039 C   0  0  0  0  0  0
    2.3906    1.3316   -0.1098 C   0  0  0  0  0  0
    3.7796    1.1902   -0.1450 C   0  0  0  0  0  0
    4.3720   -0.0645   -0.0714 C   0  0  0  0  0  0
    3.5880   -1.2159    0.0403 C   0  0  0  0  0  0
    2.1942   -1.0714    0.0769 C   0  0  0  0  0  0
   -0.6092   -0.8414    0.1663 O   0  0  0  0  0  0
   -0.5926    1.3939   -0.0353 N   0  0  0  0  0  0
    4.2182   -2.5571    0.1182 N   0  3  0  0  0  0
    3.4945   -3.5443    0.2146 O   0  0  0  0  0  0
    5.4434   -2.6342    0.0830 O   0  5  0  0  0  0
    1.9557    2.5264   -0.1838 O   0  5  0  0  0  0
   -2.0375    1.5925    0.0379 C   0  0  0  0  0  0
   -2.5970    1.2558    1.3592 C   0  0  0  0  0  0
   -3.0371    0.9919    2.3967 N   0  0  0  0  0  0
    4.4188    2.0584   -0.2299 H   0  0  0  0  0  0
    5.4497   -0.1313   -0.1024 H   0  0  0  0  0  0
    1.5944   -1.9666    0.1644 H   0  0  0  0  0  0
   -0.0212    2.2271   -0.0674 H   0  0  0  0  0  0
   -2.5481    1.0026   -0.7249 H   0  0  0  0  0  0
   -2.2601    2.6401   -0.1653 H   0  0  0  0  0  0
  1  2  1  0  0  0
  1  8  2  0  0  0
  1  9  1  0  0  0
  2  3  2  0  0  0
  2  7  1  0  0  0
  3  4  1  0  0  0
  3 13  1  0  0  0
  4  5  2  0  0  0
  4 17  1  0  0  0
  5  6  1  0  0  0
  5 18  1  0  0  0
  6  7  2  0  0  0
  6 10  1  0  0  0
  7 19  1  0  0  0
  9 14  1  0  0  0
  9 20  1  0  0  0
 10 11  2  0  0  0
 10 12  1  0  0  0
 14 15  1  0  0  0
 14 21  1  0  0  0
 14 22  1  0  0  0
 15 16  3  0  0  0
M  CHG  3  10   1  12  -1  13  -1
M  END
> <chembl_id>
CHEMBL4228513

> <chembl_pref_name>
None

> <s_m_source_file>
sdf/inactives_sanitized.sdf

> <i_m_source_file_index>
179

> <i_lp_mmshare_version>
49012

> <i_m_ct_stereo_status>
1

> <i_f3d_flags>
0

> <s_epik_input>
TiNDW0NIMl1bTkhdQyg9TyljMWMoW09IXSlbY0hdW2NIXWMoW2NIXTEpW04rXSg9TylbTy1d

> <s_epik_cmdline>
J2VwaWtfcHl0aG9uJywgJy1waHQnLCAnMC41JywgJy1waCcsICc3LjUnLCAnLW50JywgJy1tYScsICcyMDAnLCAnLWltYWUnLCAnPGluZmlsZS5tYWU+JywgJy1vbWFlJywgJzxvdXRmaWxlLm1hZT4n

> <r_lp_tautomer_probability>
1

> <r_epik_Ionization_Penalty>
  0.0017

> <r_epik_Ionization_Penalty_Charging>
  0.0017

> <r_epik_Ionization_Penalty_Neutral>
  0.0000

> <r_epik_State_Penalty>
 -0.0000

> <r_epik_Charging_Adjusted_Penalty>
0.00174071062737061

> <i_epik_Tot_Q>
-1

> <i_epik_Tot_abs_Q>
3

> <s_lp_Force_Field>
OPLS3e

> <r_lp_Energy>
11.846295

> <b_lp_Chiralities_Consistent>
1

> <s_lp_Variant>
sdf/inactives_sanitized.sdf:179-1

$$$$
sdf/inactives_sanitized.sdf:180
                    3D
 Schrodinger Suite 2020-1.
 76 77  0  0  1  0            999 V2000
   -4.9797    4.2586    6.9196 C   0  0  0  0  0  0
   -6.3469    3.9894    6.9384 C   0  0  0  0  0  0
   -6.8498    2.8236    6.3639 C   0  0  0  0  0  0
   -5.9773    1.9185    5.7648 C   0  0  0  0  0  0
   -4.6059    2.1847    5.7425 C   0  0  0  0  0  0
   -4.1067    3.3543    6.3203 C   0  0  0  0  0  0
   -3.6562    1.1995    5.0861 C   0  0  0  0  0  0
   -3.7308    1.3401    3.6729 O   0  0  0  0  0  0
   -2.9733    0.5776    2.8618 C   0  0  0  0  0  0
   -3.2630    0.9063    1.5423 N   0  0  0  0  0  0
   -2.1634   -0.2714    3.2439 O   0  0  0  0  0  0
   -2.5489    0.2728    0.4196 C   0  0  2  0  0  0
   -1.1093    0.8102    0.2354 C   0  0  0  0  0  0
   -3.3673    0.4827   -0.8841 C   0  0  0  0  0  0
   -4.7692   -0.1747   -0.8994 C   0  0  0  0  0  0
   -4.7036   -1.7087   -0.7373 C   0  0  0  0  0  0
   -5.5634    0.2457   -2.1550 C   0  0  0  0  0  0
   -0.8354    1.9727    0.5410 O   0  0  0  0  0  0
   -0.2261   -0.0514   -0.3078 N   0  0  0  0  0  0
    1.1717    0.2417   -0.6723 C   0  0  2  0  0  0
    1.1739    1.1452   -1.9152 C   0  0  0  0  0  0
    1.9450   -1.0808   -0.9228 C   0  0  0  0  0  0
    3.4654   -0.9458   -1.1208 C   0  0  0  0  0  0
    2.3733    2.1795   -2.0106 C   0  0  0  0  0  0
    0.3058    1.1081   -2.7952 O   0  0  0  0  0  0
    3.1911    2.3102   -1.0981 O   0  0  0  0  0  0
    2.3774    2.8590   -3.1731 N   0  0  0  0  0  0
    3.3724    3.8634   -3.5410 C   0  0  0  0  0  0
    4.7358    3.2645   -3.9488 C   0  0  0  0  0  0
    5.7914    4.3065   -4.3820 C   0  0  0  0  0  0
    6.0805    5.3251   -3.3657 N   0  0  0  0  0  0
    6.6396    4.7664   -2.1250 C   0  0  0  0  0  0
    7.0097    5.8769   -1.1189 C   0  0  0  0  0  0
    7.8816    6.8214   -1.7298 O   0  0  0  0  0  0
    7.2918    7.4451   -2.8648 C   0  0  0  0  0  0
    6.9327    6.3824   -3.9253 C   0  0  0  0  0  0
   -4.5986    5.1649    7.3670 H   0  0  0  0  0  0
   -7.0237    4.6919    7.4024 H   0  0  0  0  0  0
   -7.9109    2.6231    6.3823 H   0  0  0  0  0  0
   -6.3662    1.0151    5.3173 H   0  0  0  0  0  0
   -3.0469    3.5649    6.3041 H   0  0  0  0  0  0
   -2.6372    1.3760    5.4356 H   0  0  0  0  0  0
   -3.9248    0.1849    5.3856 H   0  0  0  0  0  0
   -3.8854    1.6772    1.3481 H   0  0  0  0  0  0
   -2.4841   -0.8016    0.6077 H   0  0  0  0  0  0
   -3.4737    1.5546   -1.0655 H   0  0  0  0  0  0
   -2.8076    0.0994   -1.7401 H   0  0  0  0  0  0
   -5.3254    0.2151   -0.0458 H   0  0  0  0  0  0
   -3.7064   -2.0986   -0.9422 H   0  0  0  0  0  0
   -5.3928   -2.2324   -1.3997 H   0  0  0  0  0  0
   -4.9636   -1.9976    0.2813 H   0  0  0  0  0  0
   -5.7522   -0.5867   -2.8331 H   0  0  0  0  0  0
   -5.0407    1.0078   -2.7340 H   0  0  0  0  0  0
   -6.5316    0.6640   -1.8776 H   0  0  0  0  0  0
   -0.5436   -0.9809   -0.5419 H   0  0  0  0  0  0
    1.6167    0.7388    0.1931 H   0  0  0  0  0  0
    1.7829   -1.7408   -0.0687 H   0  0  0  0  0  0
    1.5151   -1.6140   -1.7731 H   0  0  0  0  0  0
    3.9354   -1.9274   -1.1857 H   0  0  0  0  0  0
    3.9269   -0.4140   -0.2881 H   0  0  0  0  0  0
    3.7085   -0.4113   -2.0390 H   0  0  0  0  0  0
    1.6505    2.6704   -3.8484 H   0  0  0  0  0  0
    2.9788    4.4586   -4.3656 H   0  0  0  0  0  0
    3.4985    4.5821   -2.7287 H   0  0  0  0  0  0
    5.1408    2.6222   -3.1661 H   0  0  0  0  0  0
    4.5753    2.5914   -4.7919 H   0  0  0  0  0  0
    6.7150    3.8002   -4.6685 H   0  0  0  0  0  0
    5.4179    4.8096   -5.2758 H   0  0  0  0  0  0
    5.9254    4.0835   -1.6652 H   0  0  0  0  0  0
    7.5223    4.1688   -2.3587 H   0  0  0  0  0  0
    6.1149    6.3733   -0.7382 H   0  0  0  0  0  0
    7.5141    5.4430   -0.2554 H   0  0  0  0  0  0
    6.4110    8.0194   -2.5710 H   0  0  0  0  0  0
    8.0039    8.1587   -3.2796 H   0  0  0  0  0  0
    7.8446    5.9431   -4.3339 H   0  0  0  0  0  0
    6.4223    6.8533   -4.7667 H   0  0  0  0  0  0
  1  6  2  0  0  0
  1  2  1  0  0  0
  1 37  1  0  0  0
  2  3  2  0  0  0
  2 38  1  0  0  0
  3  4  1  0  0  0
  3 39  1  0  0  0
  4  5  2  0  0  0
  4 40  1  0  0  0
  5  6  1  0  0  0
  5  7  1  0  0  0
  6 41  1  0  0  0
  7  8  1  0  0  0
  7 42  1  0  0  0
  7 43  1  0  0  0
  8  9  1  0  0  0
  9 10  1  0  0  0
  9 11  2  0  0  0
 10 12  1  0  0  0
 10 44  1  0  0  0
 12 13  1  0  0  0
 12 14  1  0  0  0
 12 45  1  0  0  0
 13 18  2  0  0  0
 13 19  1  0  0  0
 14 15  1  0  0  0
 14 46  1  0  0  0
 14 47  1  0  0  0
 15 16  1  0  0  0
 15 17  1  0  0  0
 15 48  1  0  0  0
 16 49  1  0  0  0
 16 50  1  0  0  0
 16 51  1  0  0  0
 17 52  1  0  0  0
 17 53  1  0  0  0
 17 54  1  0  0  0
 19 20  1  0  0  0
 19 55  1  0  0  0
 20 21  1  0  0  0
 20 22  1  0  0  0
 20 56  1  0  0  0
 21 24  1  0  0  0
 21 25  2  0  0  0
 22 23  1  0  0  0
 22 57  1  0  0  0
 22 58  1  0  0  0
 23 59  1  0  0  0
 23 60  1  0  0  0
 23 61  1  0  0  0
 24 26  2  0  0  0
 24 27  1  0  0  0
 27 28  1  0  0  0
 27 62  1  0  0  0
 28 29  1  0  0  0
 28 63  1  0  0  0
 28 64  1  0  0  0
 29 30  1  0  0  0
 29 65  1  0  0  0
 29 66  1  0  0  0
 30 31  1  0  0  0
 30 67  1  0  0  0
 30 68  1  0  0  0
 31 32  1  0  0  0
 31 36  1  0  0  0
 32 33  1  0  0  0
 32 69  1  0  0  0
 32 70  1  0  0  0
 33 34  1  0  0  0
 33 71  1  0  0  0
 33 72  1  0  0  0
 34 35  1  0  0  0
 35 36  1  0  0  0
 35 73  1  0  0  0
 35 74  1  0  0  0
 36 75  1  0  0  0
 36 76  1  0  0  0
M  END
> <chembl_id>
CHEMBL1242959

> <chembl_pref_name>
None

> <i_m_ct_stereo_status>
1

> <s_m_source_file>
sdf/inactives_sanitized.sdf

> <i_m_source_file_index>
180

> <i_lp_mmshare_version>
49012

> <i_f3d_flags>
0

> <s_epik_input>
W2NIXTFbY0hdW2NIXVtjSF1bY0hdYzFbQ0gyXU9DKD1PKVtOSF1bQ0BASF0oW0NIMl1bQ0hdKFtDSDNdKVtDSDNdKUMoPU8pW05IXVtDQEBIXShbQ0gyXVtDSDNdKUMoPU8pQyg9TylbTkhdW0NIMl1bQ0gyXVtDSDJdTjJbQ0gyXVtDSDJdT1tDSDJdW0NIMl0y

> <s_epik_cmdline>
J2VwaWtfcHl0aG9uJywgJy1waHQnLCAnMC41JywgJy1waCcsICc3LjUnLCAnLW50JywgJy1tYScsICcyMDAnLCAnLWltYWUnLCAnPGluZmlsZS5tYWU+JywgJy1vbWFlJywgJzxvdXRmaWxlLm1hZT4n

> <r_lp_tautomer_probability>
0.99990000499975

> <r_epik_Ionization_Penalty>
  0.1906

> <r_epik_Ionization_Penalty_Charging>
  0.0000

> <r_epik_Ionization_Penalty_Neutral>
  0.1906

> <r_epik_State_Penalty>
  0.1802

> <r_epik_Charging_Adjusted_Penalty>
0.18023018386228

> <i_epik_Tot_Q>
0

> <i_epik_Tot_abs_Q>
0

> <s_epik_Chemistry_Notes>
This compound has an ester and may undergo hydrolysis at high or low pH.

> <s_lp_Force_Field>
OPLS3e

> <r_lp_Energy>
34.962333

> <b_lp_Chiralities_Consistent>
1

> <s_lp_Variant>
sdf/inactives_sanitized.sdf:180-1

$$$$
sdf/inactives_sanitized.sdf:181
                    3D
 Schrodinger Suite 2020-1.
 39 41  0  0  1  0            999 V2000
   -1.3682    1.9436    0.4583 C   0  0  0  0  0  0
   -2.4083    1.1648    0.9666 C   0  0  0  0  0  0
   -3.7163    1.6395    0.9288 C   0  0  0  0  0  0
   -4.0020    2.9001    0.3846 C   0  0  0  0  0  0
   -2.9479    3.6744   -0.1216 C   0  0  0  0  0  0
   -1.6394    3.2008   -0.0830 C   0  0  0  0  0  0
    0.0614    1.4318    0.5152 C   0  0  0  0  0  0
    0.4930    0.5219   -1.0048 S   0  0  0  0  0  0
    2.1706   -0.0454   -0.6436 C   0  0  0  0  0  0
    2.7088   -0.7193   -1.6069 N   0  5  0  0  0  0
    3.9696   -1.1934   -1.4607 C   0  0  0  0  0  0
    4.6401   -0.9467   -0.2158 N   0  0  0  0  0  0
    3.9980   -0.2735    0.6890 C   0  0  0  0  0  0
    2.7100    0.2543    0.5024 N   0  0  0  0  0  0
    4.5180   -1.8180   -2.3657 O   0  0  0  0  0  0
    4.8392   -0.0530    2.2709 S   0  0  0  0  0  0
    3.6072    0.9016    3.2141 C   0  0  0  0  0  0
    4.0881    1.1610    4.6321 C   0  0  0  0  0  0
    3.7597    0.2662    5.6544 C   0  0  0  0  0  0
    4.1904    0.5098    6.9560 C   0  0  0  0  0  0
    4.9451    1.6483    7.2312 C   0  0  0  0  0  0
    5.2729    2.5460    6.2173 C   0  0  0  0  0  0
    4.8422    2.3034    4.9154 C   0  0  0  0  0  0
   -5.3965    3.4062    0.3461 N   0  3  0  0  0  0
   -5.6055    4.5195   -0.1277 O   0  0  0  0  0  0
   -6.2935    2.6943    0.7899 O   0  5  0  0  0  0
   -2.2058    0.1911    1.3888 H   0  0  0  0  0  0
   -4.5053    1.0185    1.3278 H   0  0  0  0  0  0
   -3.1341    4.6492   -0.5482 H   0  0  0  0  0  0
   -0.8386    3.8103   -0.4768 H   0  0  0  0  0  0
    0.7464    2.2705    0.6505 H   0  0  0  0  0  0
    0.1815    0.7857    1.3864 H   0  0  0  0  0  0
    3.4123    1.8516    2.7139 H   0  0  0  0  0  0
    2.6588    0.3626    3.2448 H   0  0  0  0  0  0
    3.1744   -0.6167    5.4417 H   0  0  0  0  0  0
    3.9405   -0.1805    7.7483 H   0  0  0  0  0  0
    5.2792    1.8372    8.2407 H   0  0  0  0  0  0
    5.8580    3.4261    6.4399 H   0  0  0  0  0  0
    5.0969    2.9998    4.1296 H   0  0  0  0  0  0
  1  2  2  0  0  0
  1  7  1  0  0  0
  1  6  1  0  0  0
  2  3  1  0  0  0
  2 27  1  0  0  0
  3  4  2  0  0  0
  3 28  1  0  0  0
  4  5  1  0  0  0
  4 24  1  0  0  0
  5  6  2  0  0  0
  5 29  1  0  0  0
  6 30  1  0  0  0
  7  8  1  0  0  0
  7 31  1  0  0  0
  7 32  1  0  0  0
  8  9  1  0  0  0
  9 14  2  0  0  0
  9 10  1  0  0  0
 10 11  1  0  0  0
 11 15  2  0  0  0
 11 12  1  0  0  0
 12 13  2  0  0  0
 13 14  1  0  0  0
 13 16  1  0  0  0
 16 17  1  0  0  0
 17 18  1  0  0  0
 17 33  1  0  0  0
 17 34  1  0  0  0
 18 19  2  0  0  0
 18 23  1  0  0  0
 19 20  1  0  0  0
 19 35  1  0  0  0
 20 21  2  0  0  0
 20 36  1  0  0  0
 21 22  1  0  0  0
 21 37  1  0  0  0
 22 23  2  0  0  0
 22 38  1  0  0  0
 23 39  1  0  0  0
 24 25  2  0  0  0
 24 26  1  0  0  0
M  CHG  3  10  -1  24   1  26  -1
M  END
> <chembl_id>
CHEMBL1836468

> <chembl_pref_name>
None

> <s_m_source_file>
sdf/inactives_sanitized.sdf

> <i_m_source_file_index>
181

> <i_lp_mmshare_version>
49012

> <i_m_ct_stereo_status>
1

> <i_f3d_flags>
0

> <s_epik_input>
W2NIXTFbY0hdYyhbTitdKD1PKVtPLV0pW2NIXVtjSF1jMVtDSDJdU2MyW25IXWMoPU8pbmMobjIpU1tDSDJdYzNbY0hdW2NIXVtjSF1bY0hdW2NIXTM=

> <s_epik_cmdline>
J2VwaWtfcHl0aG9uJywgJy1waHQnLCAnMC41JywgJy1waCcsICc3LjUnLCAnLW50JywgJy1tYScsICcyMDAnLCAnLWltYWUnLCAnPGluZmlsZS5tYWU+JywgJy1vbWFlJywgJzxvdXRmaWxlLm1hZT4n

> <r_lp_tautomer_probability>
1

> <r_epik_Ionization_Penalty>
  0.3245

> <r_epik_Ionization_Penalty_Charging>
  0.0003

> <r_epik_Ionization_Penalty_Neutral>
  0.3241

> <r_epik_State_Penalty>
 -0.0000

> <r_epik_Charging_Adjusted_Penalty>
0.000330722952361958

> <i_epik_Tot_Q>
-1

> <i_epik_Tot_abs_Q>
3

> <s_lp_Force_Field>
OPLS3e

> <r_lp_Energy>
42.984696

> <b_lp_Chiralities_Consistent>
1

> <s_lp_Variant>
sdf/inactives_sanitized.sdf:181-1

$$$$
sdf/inactives_sanitized.sdf:182
                    3D
 Schrodinger Suite 2020-1.
 62 66  0  0  1  0            999 V2000
   -0.2259   -2.2158    0.0049 C   0  0  0  0  0  0
   -3.0379   -1.8767   -0.0419 C   0  0  0  0  0  0
   -2.2040   -0.6801   -0.0244 C   0  0  0  0  0  0
   -0.7463   -0.8450   -0.0015 C   0  0  0  0  0  0
    0.0161    0.2855    0.0139 C   0  0  0  0  0  0
   -0.5705    1.5585    0.0076 N   0  0  0  0  0  0
   -1.9252    1.7852   -0.0164 C   0  0  0  0  0  0
   -2.7261    0.5685   -0.0293 C   0  0  0  0  0  0
   -2.4574    2.8973   -0.0309 O   0  0  0  0  0  0
    0.3097    2.6597    0.0103 N   0  0  0  0  0  0
    1.5013    0.1777    0.0351 C   0  0  0  0  0  0
    2.2158    0.1038   -1.1625 C   0  0  0  0  0  0
    3.6039    0.0052   -1.1417 C   0  0  0  0  0  0
    4.2959   -0.0162    0.0698 C   0  0  0  0  0  0
    3.5755    0.0682    1.2720 C   0  0  0  0  0  0
    2.1869    0.1678    1.2517 C   0  0  0  0  0  0
    5.6713   -0.1209   -0.0086 O   0  0  0  0  0  0
    6.4349   -0.1620    1.1922 C   0  0  0  0  0  0
   -1.0438   -3.3046   -0.0125 C   0  0  0  0  0  0
   -2.5026   -3.1286   -0.0382 C   0  0  0  0  0  0
   -3.2445   -4.2757   -0.0574 O   0  0  0  0  0  0
   -0.5954   -4.5956   -0.0049 O   0  0  0  0  0  0
   -4.6719   -4.2096   -0.0616 C   0  0  0  0  0  0
   -5.2712   -5.6105   -0.0395 C   0  0  0  0  0  0
    0.8042   -4.8691    0.0358 C   0  0  0  0  0  0
    1.0049   -6.3743    0.0265 C   0  0  0  0  0  0
    1.0874   -7.0577   -1.1896 C   0  0  0  0  0  0
    1.2585   -8.4395   -1.1992 C   0  0  0  0  0  0
    1.3445   -9.1326    0.0065 C   0  0  0  0  0  0
    1.2592   -8.4570    1.2223 C   0  0  0  0  0  0
    1.0880   -7.0751    1.2327 C   0  0  0  0  0  0
   -6.5479   -5.8154   -0.5709 C   0  0  0  0  0  0
   -7.1170   -7.0862   -0.5510 C   0  0  0  0  0  0
   -6.4094   -8.1503    0.0039 C   0  0  0  0  0  0
   -5.1391   -7.9547    0.5412 C   0  0  0  0  0  0
   -4.5698   -6.6840    0.5218 C   0  0  0  0  0  0
    0.8443   -2.3492    0.0254 H   0  0  0  0  0  0
   -4.1080   -1.7365   -0.0604 H   0  0  0  0  0  0
   -3.7999    0.6905   -0.0468 H   0  0  0  0  0  0
    0.8895    2.5706    0.8322 H   0  0  0  0  0  0
    0.9194    2.5505   -0.7872 H   0  0  0  0  0  0
    1.6956    0.1176   -2.1095 H   0  0  0  0  0  0
    4.1469   -0.0564   -2.0737 H   0  0  0  0  0  0
    4.0744    0.0577    2.2291 H   0  0  0  0  0  0
    1.6429    0.2315    2.1831 H   0  0  0  0  0  0
    7.4923   -0.2490    0.9430 H   0  0  0  0  0  0
    6.1691   -1.0239    1.8062 H   0  0  0  0  0  0
    6.3081    0.7491    1.7789 H   0  0  0  0  0  0
   -5.0358   -3.6696    0.8144 H   0  0  0  0  0  0
   -5.0120   -3.6837   -0.9564 H   0  0  0  0  0  0
    1.3143   -4.4306   -0.8246 H   0  0  0  0  0  0
    1.2580   -4.4441    0.9337 H   0  0  0  0  0  0
    1.0162   -6.5217   -2.1250 H   0  0  0  0  0  0
    1.3224   -8.9714   -2.1371 H   0  0  0  0  0  0
    1.4765  -10.2045   -0.0014 H   0  0  0  0  0  0
    1.3237   -9.0025    2.1521 H   0  0  0  0  0  0
    1.0173   -6.5528    2.1759 H   0  0  0  0  0  0
   -7.1000   -4.9919   -1.0006 H   0  0  0  0  0  0
   -8.1025   -7.2458   -0.9633 H   0  0  0  0  0  0
   -6.8505   -9.1361    0.0190 H   0  0  0  0  0  0
   -4.5983   -8.7843    0.9723 H   0  0  0  0  0  0
   -3.5858   -6.5402    0.9444 H   0  0  0  0  0  0
  1 19  2  0  0  0
  1  4  1  0  0  0
  1 37  1  0  0  0
  2  3  1  0  0  0
  2 20  2  0  0  0
  2 38  1  0  0  0
  3  4  1  0  0  0
  3  8  2  0  0  0
  4  5  2  0  0  0
  5  6  1  0  0  0
  5 11  1  0  0  0
  6  7  1  0  0  0
  6 10  1  0  0  0
  7  8  1  0  0  0
  7  9  2  0  0  0
  8 39  1  0  0  0
 10 40  1  0  0  0
 10 41  1  0  0  0
 11 12  2  0  0  0
 11 16  1  0  0  0
 12 13  1  0  0  0
 12 42  1  0  0  0
 13 14  2  0  0  0
 13 43  1  0  0  0
 14 17  1  0  0  0
 14 15  1  0  0  0
 15 16  2  0  0  0
 15 44  1  0  0  0
 16 45  1  0  0  0
 17 18  1  0  0  0
 18 46  1  0  0  0
 18 47  1  0  0  0
 18 48  1  0  0  0
 19 20  1  0  0  0
 19 22  1  0  0  0
 20 21  1  0  0  0
 21 23  1  0  0  0
 22 25  1  0  0  0
 23 24  1  0  0  0
 23 49  1  0  0  0
 23 50  1  0  0  0
 24 32  2  0  0  0
 24 36  1  0  0  0
 25 26  1  0  0  0
 25 51  1  0  0  0
 25 52  1  0  0  0
 26 27  2  0  0  0
 26 31  1  0  0  0
 27 28  1  0  0  0
 27 53  1  0  0  0
 28 29  2  0  0  0
 28 54  1  0  0  0
 29 30  1  0  0  0
 29 55  1  0  0  0
 30 31  2  0  0  0
 30 56  1  0  0  0
 31 57  1  0  0  0
 32 33  1  0  0  0
 32 58  1  0  0  0
 33 34  2  0  0  0
 33 59  1  0  0  0
 34 35  1  0  0  0
 34 60  1  0  0  0
 35 36  2  0  0  0
 35 61  1  0  0  0
 36 62  1  0  0  0
M  END
> <chembl_id>
CHEMBL603639

> <chembl_pref_name>
None

> <s_m_source_file>
sdf/inactives_sanitized.sdf

> <i_m_source_file_index>
182

> <i_lp_mmshare_version>
49012

> <i_m_ct_stereo_status>
1

> <i_f3d_flags>
0

> <s_epik_input>
W2NIXTFbY0hdYyhPW0NIM10pW2NIXVtjSF1jMS1jKG4oW05IMl0pYyg9TylbY0hdMiljKGMyMylbY0hdYyhPW0NIMl1jNFtjSF1bY0hdW2NIXVtjSF1bY0hdNCljKFtjSF0zKU9bQ0gyXWM1W2NIXVtjSF1bY0hdW2NIXVtjSF01

> <s_epik_cmdline>
J2VwaWtfcHl0aG9uJywgJy1waHQnLCAnMC41JywgJy1waCcsICc3LjUnLCAnLW50JywgJy1tYScsICcyMDAnLCAnLWltYWUnLCAnPGluZmlsZS5tYWU+JywgJy1vbWFlJywgJzxvdXRmaWxlLm1hZT4n

> <r_lp_tautomer_probability>
1

> <r_epik_Ionization_Penalty>
  0.0023

> <r_epik_Ionization_Penalty_Charging>
  0.0000

> <r_epik_Ionization_Penalty_Neutral>
  0.0023

> <r_epik_State_Penalty>
 -0.0000

> <r_epik_Charging_Adjusted_Penalty>
1.19669860346617e-07

> <i_epik_Tot_Q>
0

> <i_epik_Tot_abs_Q>
0

> <s_lp_Force_Field>
OPLS3e

> <r_lp_Energy>
89.763048

> <b_lp_Chiralities_Consistent>
1

> <s_lp_Variant>
sdf/inactives_sanitized.sdf:182-1

$$$$
sdf/inactives_sanitized.sdf:183
                    3D
 Schrodinger Suite 2020-1.
 93 98  0  0  1  0            999 V2000
   -6.2830    0.7101    0.4372 N   0  0  0  0  0  0
   -0.9022    1.1950    0.2384 C   0  0  0  0  0  0
   -3.3160    0.9823   -2.0649 C   0  0  0  0  0  0
   -2.4283    1.0040    0.3147 C   0  0  2  0  0  0
   -4.4909    0.9307    1.9683 C   0  0  1  0  0  0
   -3.0869    1.6345   -0.8484 N   0  0  0  0  0  0
    0.9638    0.5166   -8.1070 N   0  0  0  0  0  0
   -5.5979    1.5423    1.1148 C   0  0  0  0  0  0
   -0.1800    0.0675    0.1222 N   0  0  0  0  0  0
   -4.7466   -0.5147    1.6433 C   0  0  0  0  0  0
   -3.0436    1.4274    1.6794 C   0  0  0  0  0  0
   -5.7800   -0.5516    0.7249 C   0  0  0  0  0  0
    0.9975    0.3029   -6.7294 C   0  0  0  0  0  0
   -0.4223    2.3283    0.2838 O   0  0  0  0  0  0
   -3.8440    1.5157   -3.0406 O   0  0  0  0  0  0
   -2.9021   -0.3052   -2.0364 O   0  0  0  0  0  0
    0.9342   -0.4495   -2.5813 N   0  0  0  0  0  0
    1.5829    1.2236   -5.8471 C   0  0  0  0  0  0
    0.4172   -0.8554   -6.1968 C   0  0  0  0  0  0
    0.9946   -0.1642   -3.9546 C   0  0  0  0  0  0
    1.2630    0.0060   -0.1222 C   0  0  2  0  0  0
   -3.1105   -1.1942   -3.1242 C   0  0  0  0  0  0
    1.6051    0.3855   -1.5855 C   0  0  0  0  0  0
    1.5825    0.9948   -4.4737 C   0  0  0  0  0  0
    0.4167   -1.0874   -4.8248 C   0  0  0  0  0  0
    1.4823   -1.8782    1.6887 C   0  0  0  0  0  0
    1.8455   -1.3763    0.2719 C   0  0  0  0  0  0
   -2.8785   -2.6242   -2.6572 C   0  0  0  0  0  0
    1.9098   -0.9334    2.8043 C   0  0  0  0  0  0
   -0.3545    0.5315   -8.7721 C   0  0  0  0  0  0
    1.8655    1.4949   -8.7478 C   0  0  0  0  0  0
   -4.1244   -1.6951    2.0558 C   0  0  0  0  0  0
   -6.2129   -1.7631    0.1837 C   0  0  0  0  0  0
    3.2488   -0.8868    3.2015 C   0  0  0  0  0  0
    0.9654   -0.1095    3.4239 C   0  0  0  0  0  0
   -3.7879   -3.6219   -3.0162 C   0  0  0  0  0  0
   -1.7680   -2.9423   -1.8672 C   0  0  0  0  0  0
    2.0153    1.2904  -10.2703 C   0  0  0  0  0  0
   -0.2743    0.2846  -10.2928 C   0  0  0  0  0  0
   -4.5476   -2.9135    1.5179 C   0  0  0  0  0  0
   -5.5868   -2.9472    0.5826 C   0  0  0  0  0  0
   -3.5943   -4.9300   -2.5791 C   0  0  0  0  0  0
    3.6434   -0.0160    4.2138 C   0  0  0  0  0  0
    1.3608    0.7623    4.4347 C   0  0  0  0  0  0
   -1.5745   -4.2495   -1.4304 C   0  0  0  0  0  0
    2.6978    0.8049    4.8251 C   0  0  0  0  0  0
   -2.4892   -5.2375   -1.7880 C   0  0  0  0  0  0
    0.6606    1.2809  -10.9850 C   0  0  0  0  0  0
   -2.6022   -0.0721    0.2872 H   0  0  0  0  0  0
   -4.7193    1.1268    3.0168 H   0  0  0  0  0  0
   -3.3427    2.6076   -0.7674 H   0  0  0  0  0  0
   -5.8019    2.6084    1.0767 H   0  0  0  0  0  0
   -0.6657   -0.8175    0.1357 H   0  0  0  0  0  0
   -2.4096    1.0421    2.4807 H   0  0  0  0  0  0
   -3.0080    2.5140    1.7797 H   0  0  0  0  0  0
    0.8331   -1.4258   -2.3447 H   0  0  0  0  0  0
    2.0341    2.1343   -6.2113 H   0  0  0  0  0  0
   -0.0349   -1.5916   -6.8456 H   0  0  0  0  0  0
    1.7505    0.7428    0.5204 H   0  0  0  0  0  0
   -4.1295   -1.0918   -3.5025 H   0  0  0  0  0  0
   -2.4261   -0.9576   -3.9398 H   0  0  0  0  0  0
    2.6819    0.3383   -1.7534 H   0  0  0  0  0  0
    1.3365    1.4279   -1.7614 H   0  0  0  0  0  0
    2.0381    1.7315   -3.8296 H   0  0  0  0  0  0
   -0.0437   -1.9877   -4.4432 H   0  0  0  0  0  0
    0.4103   -2.0703    1.7593 H   0  0  0  0  0  0
    1.9502   -2.8488    1.8608 H   0  0  0  0  0  0
    2.9320   -1.3444    0.1769 H   0  0  0  0  0  0
    1.5071   -2.1296   -0.4412 H   0  0  0  0  0  0
   -0.9974   -0.2404   -8.3485 H   0  0  0  0  0  0
   -0.8412    1.4858   -8.5631 H   0  0  0  0  0  0
    1.5185    2.5058   -8.5270 H   0  0  0  0  0  0
    2.8569    1.3936   -8.3036 H   0  0  0  0  0  0
   -3.3104   -1.6769    2.7654 H   0  0  0  0  0  0
   -7.0152   -1.7991   -0.5385 H   0  0  0  0  0  0
    3.9825   -1.5205    2.7248 H   0  0  0  0  0  0
   -0.0712   -0.1384    3.1203 H   0  0  0  0  0  0
   -4.6476   -3.3859   -3.6266 H   0  0  0  0  0  0
   -1.0597   -2.1779   -1.5842 H   0  0  0  0  0  0
    2.6297    2.0931  -10.6792 H   0  0  0  0  0  0
    2.5746    0.3748  -10.4689 H   0  0  0  0  0  0
    0.0350   -0.7444  -10.4836 H   0  0  0  0  0  0
   -1.2728    0.3679  -10.7230 H   0  0  0  0  0  0
   -4.0664   -3.8318    1.8205 H   0  0  0  0  0  0
   -5.9063   -3.8912    0.1665 H   0  0  0  0  0  0
   -4.2984   -5.7025   -2.8511 H   0  0  0  0  0  0
    4.6777    0.0240    4.5224 H   0  0  0  0  0  0
    0.6347    1.4031    4.9129 H   0  0  0  0  0  0
   -0.7208   -4.4951   -0.8162 H   0  0  0  0  0  0
    3.0044    1.4814    5.6092 H   0  0  0  0  0  0
   -2.3402   -6.2523   -1.4492 H   0  0  0  0  0  0
    0.2211    2.2793  -10.9558 H   0  0  0  0  0  0
    0.7837    1.0234  -12.0377 H   0  0  0  0  0  0
  1  8  2  0  0  0
  1 12  1  0  0  0
  2  4  1  0  0  0
  2  9  1  0  0  0
  2 14  2  0  0  0
  3  6  1  0  0  0
  3 15  2  0  0  0
  3 16  1  0  0  0
  4 11  1  0  0  0
  4  6  1  0  0  0
  4 49  1  0  0  0
  5  8  1  0  0  0
  5 11  1  0  0  0
  5 10  1  0  0  0
  5 50  1  0  0  0
  6 51  1  0  0  0
  7 13  1  0  0  0
  7 30  1  0  0  0
  7 31  1  0  0  0
  8 52  1  0  0  0
  9 21  1  0  0  0
  9 53  1  0  0  0
 10 12  2  0  0  0
 10 32  1  0  0  0
 11 54  1  0  0  0
 11 55  1  0  0  0
 12 33  1  0  0  0
 13 19  2  0  0  0
 13 18  1  0  0  0
 16 22  1  0  0  0
 17 23  1  0  0  0
 17 20  1  0  0  0
 17 56  1  0  0  0
 18 24  2  0  0  0
 18 57  1  0  0  0
 19 25  1  0  0  0
 19 58  1  0  0  0
 20 24  1  0  0  0
 20 25  2  0  0  0
 21 23  1  0  0  0
 21 27  1  0  0  0
 21 59  1  0  0  0
 22 28  1  0  0  0
 22 60  1  0  0  0
 22 61  1  0  0  0
 23 62  1  0  0  0
 23 63  1  0  0  0
 24 64  1  0  0  0
 25 65  1  0  0  0
 26 27  1  0  0  0
 26 29  1  0  0  0
 26 66  1  0  0  0
 26 67  1  0  0  0
 27 68  1  0  0  0
 27 69  1  0  0  0
 28 36  2  0  0  0
 28 37  1  0  0  0
 29 34  2  0  0  0
 29 35  1  0  0  0
 30 39  1  0  0  0
 30 70  1  0  0  0
 30 71  1  0  0  0
 31 38  1  0  0  0
 31 72  1  0  0  0
 31 73  1  0  0  0
 32 40  2  0  0  0
 32 74  1  0  0  0
 33 41  2  0  0  0
 33 75  1  0  0  0
 34 43  1  0  0  0
 34 76  1  0  0  0
 35 44  2  0  0  0
 35 77  1  0  0  0
 36 42  1  0  0  0
 36 78  1  0  0  0
 37 45  2  0  0  0
 37 79  1  0  0  0
 38 48  1  0  0  0
 38 80  1  0  0  0
 38 81  1  0  0  0
 39 48  1  0  0  0
 39 82  1  0  0  0
 39 83  1  0  0  0
 40 41  1  0  0  0
 40 84  1  0  0  0
 41 85  1  0  0  0
 42 47  2  0  0  0
 42 86  1  0  0  0
 43 46  2  0  0  0
 43 87  1  0  0  0
 44 46  1  0  0  0
 44 88  1  0  0  0
 45 47  1  0  0  0
 45 89  1  0  0  0
 46 90  1  0  0  0
 47 91  1  0  0  0
 48 92  1  0  0  0
 48 93  1  0  0  0
M  END
> <chembl_id>
CHEMBL354132

> <chembl_pref_name>
None

> <i_m_ct_stereo_status>
1

> <s_m_source_file>
sdf/inactives_sanitized.sdf

> <i_m_source_file_index>
183

> <i_lp_mmshare_version>
49012

> <i_f3d_flags>
0

> <s_epik_input>
W2NIXTFbY0hdW2NIXVtjSF1bY0hdYzFbQ0gyXU9DKD1PKVtOSF1bQ0BIXShbQ0gyXVtDQEhdMltDSF09TmMoYzIzKVtjSF1bY0hdW2NIXVtjSF0zKUMoPU8pW05IXVtDQEBIXShbQ0gyXVtDSDJdYzRbY0hdW2NIXVtjSF1bY0hdW2NIXTQpW0NIMl1bTkhdYyhbY0hdW2NIXTUpW2NIXVtjSF1jNU42W0NIMl1bQ0gyXVtDSDJdW0NIMl1bQ0gyXTY=

> <s_epik_cmdline>
J2VwaWtfcHl0aG9uJywgJy1waHQnLCAnMC41JywgJy1waCcsICc3LjUnLCAnLW50JywgJy1tYScsICcyMDAnLCAnLWltYWUnLCAnPGluZmlsZS5tYWU+JywgJy1vbWFlJywgJzxvdXRmaWxlLm1hZT4n

> <r_lp_tautomer_probability>
0.999601159137504

> <r_epik_Ionization_Penalty>
  0.0608

> <r_epik_Ionization_Penalty_Charging>
  0.0000

> <r_epik_Ionization_Penalty_Neutral>
  0.0608

> <r_epik_State_Penalty>
  0.0370

> <r_epik_Charging_Adjusted_Penalty>
0.0370200985984665

> <i_epik_Tot_Q>
0

> <i_epik_Tot_abs_Q>
0

> <s_epik_Chemistry_Notes>
This compound has an ester and may undergo hydrolysis at high or low pH. This compound has an imine and may undergo hydrolysis.

> <s_lp_Force_Field>
OPLS3e

> <r_lp_Energy>
55.538056

> <b_lp_Chiralities_Consistent>
1

> <s_lp_Variant>
sdf/inactives_sanitized.sdf:183-1

$$$$
sdf/inactives_sanitized.sdf:184
                    3D
 Schrodinger Suite 2020-1.
 78 81  0  0  1  0            999 V2000
    3.8064   -0.1924   -0.5574 C   0  0  1  0  0  0
    4.7374   -1.1635   -1.2768 C   0  0  2  0  0  0
    4.7626    0.2974   -1.6527 C   0  0  0  0  0  0
    2.2982   -0.1191   -0.9415 C   0  0  0  0  0  0
   -0.3626    1.5478   -0.4377 C   0  0  0  0  0  0
   -0.0514    0.0962   -0.0481 C   0  0  1  0  0  0
    4.1455    0.0772    0.8468 N   0  0  0  0  0  0
    1.4077   -0.0664    0.0708 N   0  0  0  0  0  0
   -1.7129    1.7650   -1.2403 C   0  0  0  0  0  0
    4.2580    1.3615    1.3617 C   0  0  0  0  0  0
    0.3655    2.5091   -0.1640 O   0  0  0  0  0  0
    1.9341   -0.1095   -2.1186 O   0  0  0  0  0  0
   -0.6948   -0.2830    1.3134 C   0  0  0  0  0  0
    4.1345    2.4124    0.7280 O   0  0  0  0  0  0
   -2.3487    0.8192   -1.7090 O   0  0  0  0  0  0
    4.5117    1.2826    2.6813 O   0  0  0  0  0  0
    4.3030   -2.1883   -2.3547 C   0  0  0  0  0  0
   -2.0534    3.0638   -1.3286 N   0  0  0  0  0  0
    4.6502    2.4611    3.4650 C   0  0  0  0  0  0
   -2.1931   -0.5377    1.2992 C   0  0  0  0  0  0
   -3.2417    3.5617   -2.0151 C   0  0  0  0  0  0
    4.8079    2.0813    4.9248 C   0  0  0  0  0  0
   -4.2604    4.3262   -4.2260 C   0  0  0  0  0  0
   -3.1083    3.5980   -3.5500 C   0  0  0  0  0  0
    3.6538   -3.4235   -1.7070 C   0  0  0  0  0  0
    5.4981   -2.5914   -3.2361 C   0  0  0  0  0  0
   -3.0959    0.4794    1.6776 C   0  0  0  0  0  0
   -2.7007   -1.7394    0.7617 C   0  0  0  0  0  0
    6.0844    1.9199    5.4687 C   0  0  0  0  0  0
    3.6744    1.8940    5.7192 C   0  0  0  0  0  0
   -5.3910    3.6142   -4.6352 C   0  0  0  0  0  0
   -4.1882    5.7069   -4.4317 C   0  0  0  0  0  0
   -4.0724   -1.9298    0.6611 C   0  0  0  0  0  0
   -4.4642    0.2694    1.5686 C   0  0  0  0  0  0
   -5.2445    6.3735   -5.0472 C   0  0  0  0  0  0
    6.2268    1.5711    6.8093 C   0  0  0  0  0  0
    3.8178    1.5452    7.0597 C   0  0  0  0  0  0
   -6.4467    4.2813   -5.2513 C   0  0  0  0  0  0
    5.0932    1.3857    7.5984 C   0  0  0  0  0  0
   -4.9497   -0.9317    1.0668 C   0  0  0  0  0  0
   -6.3684    5.6576   -5.4547 C   0  0  0  0  0  0
    5.5823   -1.5409   -0.6977 H   0  0  0  0  0  0
    4.4272    0.5202   -2.6668 H   0  0  0  0  0  0
    5.6461    0.8751   -1.3797 H   0  0  0  0  0  0
   -0.3923   -0.6101   -0.8088 H   0  0  0  0  0  0
    4.2321   -0.7051    1.4791 H   0  0  0  0  0  0
    1.7617   -0.0675    1.0163 H   0  0  0  0  0  0
   -0.2269   -1.1968    1.6848 H   0  0  0  0  0  0
   -0.4590    0.4643    2.0742 H   0  0  0  0  0  0
    3.5675   -1.7431   -3.0234 H   0  0  0  0  0  0
   -1.4526    3.7532   -0.9001 H   0  0  0  0  0  0
    5.5168    3.0385    3.1376 H   0  0  0  0  0  0
    3.7777    3.1074    3.3516 H   0  0  0  0  0  0
   -4.1506    3.0358   -1.7156 H   0  0  0  0  0  0
   -3.4170    4.5773   -1.6579 H   0  0  0  0  0  0
   -3.0359    2.5833   -3.9453 H   0  0  0  0  0  0
   -2.1698    4.0767   -3.8356 H   0  0  0  0  0  0
    4.3488   -3.9387   -1.0428 H   0  0  0  0  0  0
    3.3239   -4.1382   -2.4617 H   0  0  0  0  0  0
    2.7783   -3.1467   -1.1187 H   0  0  0  0  0  0
    6.2810   -3.0783   -2.6531 H   0  0  0  0  0  0
    5.9399   -1.7200   -3.7208 H   0  0  0  0  0  0
    5.1938   -3.2812   -4.0241 H   0  0  0  0  0  0
   -2.7263    1.4246    2.0478 H   0  0  0  0  0  0
   -2.0252   -2.5119    0.4241 H   0  0  0  0  0  0
    6.9630    2.0633    4.8564 H   0  0  0  0  0  0
    2.6860    2.0175    5.3004 H   0  0  0  0  0  0
   -5.4529    2.5472   -4.4761 H   0  0  0  0  0  0
   -3.3174    6.2627   -4.1145 H   0  0  0  0  0  0
   -4.4587   -2.8538    0.2569 H   0  0  0  0  0  0
   -5.1534    1.0460    1.8661 H   0  0  0  0  0  0
   -5.1929    7.4403   -5.2079 H   0  0  0  0  0  0
    7.2114    1.4454    7.2355 H   0  0  0  0  0  0
    2.9446    1.3997    7.6784 H   0  0  0  0  0  0
   -7.3221    3.7344   -5.5698 H   0  0  0  0  0  0
    5.2044    1.1155    8.6384 H   0  0  0  0  0  0
   -6.0152   -1.0856    0.9801 H   0  0  0  0  0  0
   -7.1874    6.1748   -5.9325 H   0  0  0  0  0  0
  1  2  1  0  0  0
  1  3  1  0  0  0
  1  4  1  0  0  0
  1  7  1  0  0  0
  2 17  1  0  0  0
  2  3  1  0  0  0
  2 42  1  0  0  0
  3 43  1  0  0  0
  3 44  1  0  0  0
  4  8  1  0  0  0
  4 12  2  0  0  0
  5  6  1  0  0  0
  5  9  1  0  0  0
  5 11  2  0  0  0
  6  8  1  0  0  0
  6 13  1  0  0  0
  6 45  1  0  0  0
  7 10  1  0  0  0
  7 46  1  0  0  0
  8 47  1  0  0  0
  9 15  2  0  0  0
  9 18  1  0  0  0
 10 14  2  0  0  0
 10 16  1  0  0  0
 13 20  1  0  0  0
 13 48  1  0  0  0
 13 49  1  0  0  0
 16 19  1  0  0  0
 17 25  1  0  0  0
 17 26  1  0  0  0
 17 50  1  0  0  0
 18 21  1  0  0  0
 18 51  1  0  0  0
 19 22  1  0  0  0
 19 52  1  0  0  0
 19 53  1  0  0  0
 20 27  2  0  0  0
 20 28  1  0  0  0
 21 24  1  0  0  0
 21 54  1  0  0  0
 21 55  1  0  0  0
 22 29  2  0  0  0
 22 30  1  0  0  0
 23 24  1  0  0  0
 23 31  2  0  0  0
 23 32  1  0  0  0
 24 56  1  0  0  0
 24 57  1  0  0  0
 25 58  1  0  0  0
 25 59  1  0  0  0
 25 60  1  0  0  0
 26 61  1  0  0  0
 26 62  1  0  0  0
 26 63  1  0  0  0
 27 34  1  0  0  0
 27 64  1  0  0  0
 28 33  2  0  0  0
 28 65  1  0  0  0
 29 36  1  0  0  0
 29 66  1  0  0  0
 30 37  2  0  0  0
 30 67  1  0  0  0
 31 38  1  0  0  0
 31 68  1  0  0  0
 32 35  2  0  0  0
 32 69  1  0  0  0
 33 40  1  0  0  0
 33 70  1  0  0  0
 34 40  2  0  0  0
 34 71  1  0  0  0
 35 41  1  0  0  0
 35 72  1  0  0  0
 36 39  2  0  0  0
 36 73  1  0  0  0
 37 39  1  0  0  0
 37 74  1  0  0  0
 38 41  2  0  0  0
 38 75  1  0  0  0
 39 76  1  0  0  0
 40 77  1  0  0  0
 41 78  1  0  0  0
M  END
> <chembl_id>
CHEMBL445563

> <chembl_pref_name>
None

> <i_m_ct_stereo_status>
1

> <s_m_source_file>
sdf/inactives_sanitized.sdf

> <i_m_source_file_index>
184

> <i_lp_mmshare_version>
49012

> <i_f3d_flags>
0

> <s_epik_input>
W2NIXTFbY0hdW2NIXVtjSF1bY0hdYzFbQ0gyXU9DKD1PKVtOSF1bQ0BAXTIoW0NASF0oW0NIMl0yKVtDSF0oW0NIM10pW0NIM10pQyg9TylbTkhdW0NAQEhdKFtDSDJdYzNbY0hdW2NIXVtjSF1bY0hdW2NIXTMpQyg9TylDKD1PKVtOSF1bQ0gyXVtDSDJdYzRbY0hdW2NIXVtjSF1bY0hdW2NIXTQ=

> <s_epik_cmdline>
J2VwaWtfcHl0aG9uJywgJy1waHQnLCAnMC41JywgJy1waCcsICc3LjUnLCAnLW50JywgJy1tYScsICcyMDAnLCAnLWltYWUnLCAnPGluZmlsZS5tYWU+JywgJy1vbWFlJywgJzxvdXRmaWxlLm1hZT4n

> <r_lp_tautomer_probability>
1

> <r_epik_Ionization_Penalty>
  0.0000

> <r_epik_Ionization_Penalty_Charging>
  0.0000

> <r_epik_Ionization_Penalty_Neutral>
  0.0000

> <r_epik_State_Penalty>
 -0.0000

> <r_epik_Charging_Adjusted_Penalty>
0

> <i_epik_Tot_Q>
0

> <i_epik_Tot_abs_Q>
0

> <s_epik_Chemistry_Notes>
This compound has an ester and may undergo hydrolysis at high or low pH.

> <s_lp_Force_Field>
OPLS3e

> <r_lp_Energy>
48.375171

> <b_lp_Chiralities_Consistent>
1

> <s_lp_Variant>
sdf/inactives_sanitized.sdf:184-1

$$$$
sdf/inactives_sanitized.sdf:185
                    3D
 Schrodinger Suite 2020-1.
 83 86  0  0  1  0            999 V2000
   -0.6082    0.9054   -0.0169 C   0  0  0  0  0  0
    0.2670   -0.1006   -0.2135 N   0  0  0  0  0  0
   -2.9909    0.3868    2.2257 C   0  0  0  0  0  0
    2.3079    0.7397   -1.4422 C   0  0  0  0  0  0
   -2.1028    0.5341   -0.0998 C   0  0  1  0  0  0
    1.7368   -0.0050   -0.2030 C   0  0  1  0  0  0
   -2.8670    1.0845    1.0308 N   0  0  0  0  0  0
    6.1750   -2.1106   -3.9859 C   0  0  1  0  0  0
    6.9441   -2.1786   -5.3489 C   0  0  0  0  0  0
    5.7531   -0.7383   -3.6702 N   0  0  0  0  0  0
    6.5431    0.2446   -3.1980 C   0  0  0  0  0  0
   -0.2840    2.0783    0.1771 O   0  0  0  0  0  0
   -2.7417    0.9860   -1.4368 C   0  0  0  0  0  0
   -2.5132   -0.7221    2.4807 O   0  0  0  0  0  0
    4.9129   -3.0120   -4.0578 C   0  0  0  0  0  0
    1.5956    1.2168   -2.3293 O   0  0  0  0  0  0
    3.8572    0.8098   -1.4796 C   0  0  1  0  0  0
    7.8869   -3.0011   -5.3608 O   0  0  0  0  0  0
   -3.7230    1.1249    3.0805 O   0  0  0  0  0  0
    7.7483    0.0933   -3.0013 O   0  0  0  0  0  0
    4.3723    1.6442   -2.6909 C   0  0  0  0  0  0
    5.9059    1.6189   -2.9249 C   0  0  0  0  0  0
    6.4922   -1.4551   -6.2669 O   0  5  0  0  0  0
   -4.0103    0.6536    4.3904 C   0  0  0  0  0  0
    5.1674   -4.5118   -4.0675 C   0  0  0  0  0  0
   -4.1815    0.5450   -1.6500 C   0  0  0  0  0  0
   -4.7542    1.7303    5.1576 C   0  0  0  0  0  0
    2.3656    0.5076    1.1183 C   0  0  0  0  0  0
    3.9019    0.5038    1.0873 C   0  0  0  0  0  0
    4.4439    1.2847   -0.1231 C   0  0  0  0  0  0
   -4.4631   -0.7623   -2.1001 C   0  0  0  0  0  0
   -5.2494    1.3732   -1.2419 C   0  0  0  0  0  0
    5.2867   -5.2124   -5.2871 C   0  0  0  0  0  0
    5.4450   -5.1878   -2.8602 C   0  0  0  0  0  0
   -6.1506    1.7597    5.1407 C   0  0  0  0  0  0
   -4.0378    2.6930    5.8726 C   0  0  0  0  0  0
   -6.5585    0.9229   -1.3501 C   0  0  0  0  0  0
   -6.8310    2.7530    5.8406 C   0  0  0  0  0  0
   -4.7189    3.6858    6.5721 C   0  0  0  0  0  0
    5.6074   -6.5636   -5.2836 C   0  0  0  0  0  0
    5.7626   -6.5396   -2.8778 C   0  0  0  0  0  0
   -5.7791   -1.1943   -2.1998 C   0  0  0  0  0  0
    5.8376   -7.2254   -4.0838 C   0  0  0  0  0  0
   -6.1121    3.7110    6.5532 C   0  0  0  0  0  0
   -6.8220   -0.3530   -1.8322 C   0  0  0  0  0  0
   -0.1077   -1.0250   -0.3706 H   0  0  0  0  0  0
   -2.1921   -0.5563   -0.1000 H   0  0  0  0  0  0
    2.0533   -1.0410   -0.3320 H   0  0  0  0  0  0
   -3.2810    2.0009    0.9403 H   0  0  0  0  0  0
    6.8229   -2.4777   -3.1857 H   0  0  0  0  0  0
    4.7749   -0.5428   -3.8246 H   0  0  0  0  0  0
   -2.7055    2.0741   -1.5197 H   0  0  0  0  0  0
   -2.1518    0.6073   -2.2737 H   0  0  0  0  0  0
    4.2811   -2.8105   -3.1906 H   0  0  0  0  0  0
    4.2988   -2.7518   -4.9228 H   0  0  0  0  0  0
    4.1641   -0.2238   -1.6370 H   0  0  0  0  0  0
    3.8825    1.3198   -3.6115 H   0  0  0  0  0  0
    4.0678    2.6844   -2.5607 H   0  0  0  0  0  0
    6.4148    2.0814   -2.0786 H   0  0  0  0  0  0
    6.1400    2.2523   -3.7813 H   0  0  0  0  0  0
   -4.6146   -0.2542    4.3463 H   0  0  0  0  0  0
   -3.0914    0.3974    4.9212 H   0  0  0  0  0  0
    2.0191    1.5191    1.3352 H   0  0  0  0  0  0
    2.0223   -0.1088    1.9504 H   0  0  0  0  0  0
    4.2944    0.9290    2.0120 H   0  0  0  0  0  0
    4.2624   -0.5253    1.0468 H   0  0  0  0  0  0
    4.2361    2.3470    0.0185 H   0  0  0  0  0  0
    5.5286    1.1741   -0.1291 H   0  0  0  0  0  0
   -3.6572   -1.4294   -2.3690 H   0  0  0  0  0  0
   -5.0527    2.3592   -0.8468 H   0  0  0  0  0  0
    5.1306   -4.6999   -6.2252 H   0  0  0  0  0  0
    5.4086   -4.6568   -1.9203 H   0  0  0  0  0  0
   -6.7074    1.0188    4.5853 H   0  0  0  0  0  0
   -2.9575    2.6747    5.8838 H   0  0  0  0  0  0
   -7.3740    1.5643   -1.0502 H   0  0  0  0  0  0
   -7.9107    2.7817    5.8299 H   0  0  0  0  0  0
   -4.1696    4.4334    7.1253 H   0  0  0  0  0  0
    5.6876   -7.0994   -6.2180 H   0  0  0  0  0  0
    5.9616   -7.0572   -1.9510 H   0  0  0  0  0  0
   -5.9923   -2.1912   -2.5566 H   0  0  0  0  0  0
    6.0903   -8.2754   -4.0895 H   0  0  0  0  0  0
   -6.6401    4.4817    7.0952 H   0  0  0  0  0  0
   -7.8429   -0.6972   -1.9101 H   0  0  0  0  0  0
  1  2  1  0  0  0
  1  5  1  0  0  0
  1 12  2  0  0  0
  2  6  1  0  0  0
  2 46  1  0  0  0
  3  7  1  0  0  0
  3 14  2  0  0  0
  3 19  1  0  0  0
  4  6  1  0  0  0
  4 16  2  0  0  0
  4 17  1  0  0  0
  5  7  1  0  0  0
  5 13  1  0  0  0
  5 47  1  0  0  0
  6 28  1  0  0  0
  6 48  1  0  0  0
  7 49  1  0  0  0
  8 10  1  0  0  0
  8  9  1  0  0  0
  8 15  1  0  0  0
  8 50  1  0  0  0
  9 18  2  0  0  0
  9 23  1  0  0  0
 10 11  1  0  0  0
 10 51  1  0  0  0
 11 22  1  0  0  0
 11 20  2  0  0  0
 13 26  1  0  0  0
 13 52  1  0  0  0
 13 53  1  0  0  0
 15 25  1  0  0  0
 15 54  1  0  0  0
 15 55  1  0  0  0
 17 21  1  0  0  0
 17 30  1  0  0  0
 17 56  1  0  0  0
 19 24  1  0  0  0
 21 22  1  0  0  0
 21 57  1  0  0  0
 21 58  1  0  0  0
 22 59  1  0  0  0
 22 60  1  0  0  0
 24 27  1  0  0  0
 24 61  1  0  0  0
 24 62  1  0  0  0
 25 33  2  0  0  0
 25 34  1  0  0  0
 26 31  2  0  0  0
 26 32  1  0  0  0
 27 35  2  0  0  0
 27 36  1  0  0  0
 28 29  1  0  0  0
 28 63  1  0  0  0
 28 64  1  0  0  0
 29 30  1  0  0  0
 29 65  1  0  0  0
 29 66  1  0  0  0
 30 67  1  0  0  0
 30 68  1  0  0  0
 31 42  1  0  0  0
 31 69  1  0  0  0
 32 37  2  0  0  0
 32 70  1  0  0  0
 33 40  1  0  0  0
 33 71  1  0  0  0
 34 41  2  0  0  0
 34 72  1  0  0  0
 35 38  1  0  0  0
 35 73  1  0  0  0
 36 39  2  0  0  0
 36 74  1  0  0  0
 37 45  1  0  0  0
 37 75  1  0  0  0
 38 44  2  0  0  0
 38 76  1  0  0  0
 39 44  1  0  0  0
 39 77  1  0  0  0
 40 43  2  0  0  0
 40 78  1  0  0  0
 41 43  1  0  0  0
 41 79  1  0  0  0
 42 45  2  0  0  0
 42 80  1  0  0  0
 43 81  1  0  0  0
 44 82  1  0  0  0
 45 83  1  0  0  0
M  CHG  1  23  -1
M  END
> <chembl_id>
CHEMBL76087

> <chembl_pref_name>
None

> <i_m_ct_stereo_status>
1

> <s_m_source_file>
sdf/inactives_sanitized.sdf

> <i_m_source_file_index>
185

> <i_lp_mmshare_version>
49012

> <i_f3d_flags>
0

> <s_epik_input>
W2NIXTFbY0hdW2NIXVtjSF1bY0hdYzFbQ0gyXU9DKD1PKVtOSF1bQ0BASF0oW0NIMl1jMltjSF1bY0hdW2NIXVtjSF1bY0hdMilDKD1PKVtOSF1bQ0BASF0oQzM9TylbQ0gyXVtDSDJdW0NIMl1bQ0BASF0zW0NIMl1bQ0gyXUMoPU8pW05IXVtDQEhdKEMoPU8pW09IXSlbQ0gyXWM0W2NIXVtjSF1bY0hdW2NIXVtjSF00

> <s_epik_cmdline>
J2VwaWtfcHl0aG9uJywgJy1waHQnLCAnMC41JywgJy1waCcsICc3LjUnLCAnLW50JywgJy1tYScsICcyMDAnLCAnLWltYWUnLCAnPGluZmlsZS5tYWU+JywgJy1vbWFlJywgJzxvdXRmaWxlLm1hZT4n

> <r_lp_tautomer_probability>
1

> <r_epik_Ionization_Penalty>
  0.0001

> <r_epik_Ionization_Penalty_Charging>
  0.0001

> <r_epik_Ionization_Penalty_Neutral>
  0.0000

> <r_epik_State_Penalty>
 -0.0000

> <r_epik_Charging_Adjusted_Penalty>
7.14452311904536e-05

> <i_epik_Tot_Q>
-1

> <i_epik_Tot_abs_Q>
1

> <s_epik_Chemistry_Notes>
This compound has an ester and may undergo hydrolysis at high or low pH.

> <s_lp_Force_Field>
OPLS3e

> <r_lp_Energy>
50.023237

> <b_lp_Chiralities_Consistent>
1

> <s_lp_Variant>
sdf/inactives_sanitized.sdf:185-1

$$$$
sdf/inactives_sanitized.sdf:186
                    3D
 Schrodinger Suite 2020-1.
 72 73  0  0  1  0            999 V2000
    0.1212    0.6644    0.4365 C   0  0  0  0  0  0
   -0.3430    1.8753    0.0721 N   0  0  0  0  0  0
    2.0895   -0.1981    2.8218 C   0  0  0  0  0  0
    1.6616    0.5155    0.4689 C   0  0  1  0  0  0
    2.1252   -0.4726    1.4593 N   0  0  0  0  0  0
   -1.7573    2.2450   -0.1134 C   0  0  2  0  0  0
   -2.3423    1.6258   -1.3872 C   0  0  0  0  0  0
   -0.6029   -0.2993    0.6931 O   0  0  0  0  0  0
   -2.2545    0.7895   -4.0676 S   0  0  0  0  0  0
   -1.3734    1.2291   -2.5263 C   0  0  0  0  0  0
   -1.8750    3.7926   -0.1297 C   0  0  0  0  0  0
    1.7484    0.8662    3.3443 O   0  0  0  0  0  0
   -3.5621    1.5093   -1.5184 O   0  0  0  0  0  0
    2.4861   -1.2995    3.4990 O   0  0  0  0  0  0
    2.1873    0.1142   -0.9370 C   0  0  0  0  0  0
   -1.5635   -1.9092    6.4091 N   0  0  0  0  0  0
   -2.3057    2.3409   -5.0361 C   0  0  0  0  0  0
    2.4658   -1.3567    4.9256 C   0  0  0  0  0  0
   -3.2323    4.3507    0.2677 C   0  0  0  0  0  0
    1.0495   -1.5513    5.4514 C   0  0  0  0  0  0
    3.7278    0.0964   -1.0904 C   0  0  0  0  0  0
   -0.9243   -0.7185    6.5417 C   0  0  0  0  0  0
   -0.8954   -2.9210    5.7973 C   0  0  0  0  0  0
   -3.1485    2.0752   -6.3013 C   0  0  0  0  0  0
   -0.8844    2.7594   -5.4713 C   0  0  0  0  0  0
   -2.9605    3.4935   -4.2468 C   0  0  0  0  0  0
    0.4053   -2.7852    5.3078 C   0  0  0  0  0  0
    0.3752   -0.4989    6.0806 C   0  0  0  0  0  0
   -4.2018    4.6494   -0.7131 C   0  0  0  0  0  0
   -3.5936    4.4251    1.6299 C   0  0  0  0  0  0
    4.3642    1.4769   -0.8195 C   0  0  0  0  0  0
    4.1391   -0.4773   -2.4636 C   0  0  0  0  0  0
   -4.8661    4.8493    1.9898 C   0  0  0  0  0  0
   -5.4691    5.0708   -0.3333 C   0  0  0  0  0  0
   -5.7977    5.1759    1.0124 C   0  0  0  0  0  0
    0.3236    2.6057   -0.1323 H   0  0  0  0  0  0
    2.0876    1.4889    0.7231 H   0  0  0  0  0  0
    2.3414   -1.4080    1.1471 H   0  0  0  0  0  0
   -2.3072    1.8770    0.7564 H   0  0  0  0  0  0
   -0.8100    0.3523   -2.2090 H   0  0  0  0  0  0
   -0.6541    2.0260   -2.7079 H   0  0  0  0  0  0
   -1.1526    4.2163    0.5708 H   0  0  0  0  0  0
   -1.5705    4.2018   -1.0948 H   0  0  0  0  0  0
    1.7928   -0.8711   -1.1946 H   0  0  0  0  0  0
    1.7836    0.7937   -1.6907 H   0  0  0  0  0  0
    3.0751   -2.2023    5.2461 H   0  0  0  0  0  0
    2.9185   -0.4617    5.3568 H   0  0  0  0  0  0
    4.1252   -0.5925   -0.3441 H   0  0  0  0  0  0
   -1.4755    0.0723    7.0290 H   0  0  0  0  0  0
   -1.4240   -3.8581    5.7010 H   0  0  0  0  0  0
   -3.2141    2.9607   -6.9352 H   0  0  0  0  0  0
   -4.1690    1.7837   -6.0483 H   0  0  0  0  0  0
   -2.7204    1.2759   -6.9081 H   0  0  0  0  0  0
   -0.3834    1.9613   -6.0207 H   0  0  0  0  0  0
   -0.2540    3.0173   -4.6206 H   0  0  0  0  0  0
   -0.9087    3.6348   -6.1220 H   0  0  0  0  0  0
   -3.0787    4.3854   -4.8636 H   0  0  0  0  0  0
   -2.3578    3.7849   -3.3874 H   0  0  0  0  0  0
   -3.9504    3.2168   -3.8815 H   0  0  0  0  0  0
    0.8984   -3.6168    4.8253 H   0  0  0  0  0  0
    0.8433    0.4670    6.2040 H   0  0  0  0  0  0
   -3.9631    4.5547   -1.7611 H   0  0  0  0  0  0
   -2.8818    4.1545    2.3962 H   0  0  0  0  0  0
    3.6298    2.2815   -0.8637 H   0  0  0  0  0  0
    5.1516    1.7260   -1.5307 H   0  0  0  0  0  0
    4.8152    1.5022    0.1730 H   0  0  0  0  0  0
    4.6335    0.2584   -3.0980 H   0  0  0  0  0  0
    3.2817   -0.8483   -3.0262 H   0  0  0  0  0  0
    4.8272   -1.3145   -2.3416 H   0  0  0  0  0  0
   -5.1356    4.9172    3.0334 H   0  0  0  0  0  0
   -6.2047    5.3102   -1.0870 H   0  0  0  0  0  0
   -6.7866    5.5015    1.3000 H   0  0  0  0  0  0
  1  2  1  0  0  0
  1  4  1  0  0  0
  1  8  2  0  0  0
  2  6  1  0  0  0
  2 36  1  0  0  0
  3  5  1  0  0  0
  3 12  2  0  0  0
  3 14  1  0  0  0
  4  5  1  0  0  0
  4 15  1  0  0  0
  4 37  1  0  0  0
  5 38  1  0  0  0
  6  7  1  0  0  0
  6 11  1  0  0  0
  6 39  1  0  0  0
  7 10  1  0  0  0
  7 13  2  0  0  0
  9 10  1  0  0  0
  9 17  1  0  0  0
 10 40  1  0  0  0
 10 41  1  0  0  0
 11 19  1  0  0  0
 11 42  1  0  0  0
 11 43  1  0  0  0
 14 18  1  0  0  0
 15 21  1  0  0  0
 15 44  1  0  0  0
 15 45  1  0  0  0
 16 22  2  0  0  0
 16 23  1  0  0  0
 17 24  1  0  0  0
 17 25  1  0  0  0
 17 26  1  0  0  0
 18 20  1  0  0  0
 18 46  1  0  0  0
 18 47  1  0  0  0
 19 29  2  0  0  0
 19 30  1  0  0  0
 20 27  1  0  0  0
 20 28  2  0  0  0
 21 31  1  0  0  0
 21 32  1  0  0  0
 21 48  1  0  0  0
 22 28  1  0  0  0
 22 49  1  0  0  0
 23 27  2  0  0  0
 23 50  1  0  0  0
 24 51  1  0  0  0
 24 52  1  0  0  0
 24 53  1  0  0  0
 25 54  1  0  0  0
 25 55  1  0  0  0
 25 56  1  0  0  0
 26 57  1  0  0  0
 26 58  1  0  0  0
 26 59  1  0  0  0
 27 60  1  0  0  0
 28 61  1  0  0  0
 29 34  1  0  0  0
 29 62  1  0  0  0
 30 33  2  0  0  0
 30 63  1  0  0  0
 31 64  1  0  0  0
 31 65  1  0  0  0
 31 66  1  0  0  0
 32 67  1  0  0  0
 32 68  1  0  0  0
 32 69  1  0  0  0
 33 35  1  0  0  0
 33 70  1  0  0  0
 34 35  2  0  0  0
 34 71  1  0  0  0
 35 72  1  0  0  0
M  END
> <chembl_id>
CHEMBL436227

> <chembl_pref_name>
None

> <i_m_ct_stereo_status>
1

> <s_m_source_file>
sdf/inactives_sanitized.sdf

> <i_m_source_file_index>
186

> <i_lp_mmshare_version>
49012

> <i_f3d_flags>
0

> <s_epik_input>
W2NIXTFbY0hdW2NIXVtjSF1bY0hdYzFbQ0gyXVtDQEBIXShDKD1PKVtDSDJdU0MoW0NIM10pKFtDSDNdKVtDSDNdKVtOSF1DKD1PKVtDQEhdKFtDSDJdW0NIXShbQ0gzXSlbQ0gzXSlbTkhdQyg9TylPW0NIMl1jMltjSF1bY0hdbltjSF1bY0hdMg==

> <s_epik_cmdline>
J2VwaWtfcHl0aG9uJywgJy1waHQnLCAnMC41JywgJy1waCcsICc3LjUnLCAnLW50JywgJy1tYScsICcyMDAnLCAnLWltYWUnLCAnPGluZmlsZS5tYWU+JywgJy1vbWFlJywgJzxvdXRmaWxlLm1hZT4n

> <r_lp_tautomer_probability>
0.999999960000001

> <r_epik_Ionization_Penalty>
  0.0144

> <r_epik_Ionization_Penalty_Charging>
  0.0000

> <r_epik_Ionization_Penalty_Neutral>
  0.0144

> <r_epik_State_Penalty>
  0.0113

> <r_epik_Charging_Adjusted_Penalty>
0.0112541073080282

> <i_epik_Tot_Q>
0

> <i_epik_Tot_abs_Q>
0

> <s_epik_Chemistry_Notes>
This compound has an ester and may undergo hydrolysis at high or low pH.

> <s_lp_Force_Field>
OPLS3e

> <r_lp_Energy>
38.952189

> <b_lp_Chiralities_Consistent>
1

> <s_lp_Variant>
sdf/inactives_sanitized.sdf:186-1

$$$$
sdf/inactives_sanitized.sdf:187
                    3D
 Schrodinger Suite 2020-1.
 59 62  0  0  1  0            999 V2000
   -0.1956   -2.2416   -1.3769 C   0  0  0  0  0  0
   -0.5651   -0.7416   -1.4094 C   0  0  0  0  0  0
   -0.0278    0.0418   -0.1687 C   0  0  0  0  0  0
   -0.6663   -0.6579    1.0837 C   0  0  0  0  0  0
   -0.2927   -2.1540    1.1781 C   0  0  0  0  0  0
   -0.7120   -2.9196   -0.0924 C   0  0  0  0  0  0
    1.4539    0.0275   -0.1461 N   0  0  0  0  0  0
   -0.6029    1.4925   -0.3630 C   0  0  0  0  0  0
    0.0202    2.3084   -1.0468 O   0  0  0  0  0  0
   -1.7975    1.8059    0.1760 N   0  0  0  0  0  0
   -2.4736    3.0904    0.0141 C   0  0  0  0  0  0
   -2.9069    3.3357   -1.3728 C   0  0  0  0  0  0
   -3.2478    3.5278   -2.4619 N   0  0  0  0  0  0
    2.2823    0.6765    0.7031 C   0  0  0  0  0  0
    3.7624    0.3807    0.5634 C   0  0  0  0  0  0
    1.8753    1.4628    1.5614 O   0  0  0  0  0  0
    4.6614    0.8735    1.5180 C   0  0  0  0  0  0
    6.0244    0.6112    1.4147 C   0  0  0  0  0  0
    6.5274   -0.1515    0.3550 C   0  0  0  0  0  0
    5.6311   -0.6417   -0.6036 C   0  0  0  0  0  0
    4.2675   -0.3795   -0.5031 C   0  0  0  0  0  0
    8.0033   -0.4307    0.2612 C   0  0  0  0  0  0
    8.5124   -1.0053   -0.8202 N   0  0  0  0  0  0
    9.8127   -1.1859   -0.7694 C   0  0  0  0  0  0
   10.5380   -0.6379    0.7136 S   0  0  0  0  0  0
    8.9608   -0.1420    1.2398 C   0  0  0  0  0  0
   10.5680   -1.7777   -1.7556 N   0  0  0  0  0  0
   10.0100   -2.0130   -3.1005 C   0  0  0  0  0  0
   10.7271   -3.1371   -3.8761 C   0  0  0  0  0  0
   12.1227   -2.8827   -3.9195 O   0  0  0  0  0  0
   12.6879   -2.8422   -2.6185 C   0  0  0  0  0  0
   12.0412   -1.7116   -1.7913 C   0  0  0  0  0  0
    0.8869   -2.3611   -1.4428 H   0  0  0  0  0  0
   -0.6086   -2.7448   -2.2521 H   0  0  0  0  0  0
   -1.6364   -0.5968   -1.5703 H   0  0  0  0  0  0
   -0.0951   -0.3421   -2.3113 H   0  0  0  0  0  0
   -0.2735   -0.1910    1.9883 H   0  0  0  0  0  0
   -1.7484   -0.5328    1.1456 H   0  0  0  0  0  0
    0.7825   -2.2603    1.3310 H   0  0  0  0  0  0
   -0.7676   -2.6014    2.0522 H   0  0  0  0  0  0
   -1.8007   -2.9800   -0.1314 H   0  0  0  0  0  0
   -0.3529   -3.9483   -0.0434 H   0  0  0  0  0  0
    1.8630   -0.7711   -0.6082 H   0  0  0  0  0  0
   -2.3057    1.0907    0.6751 H   0  0  0  0  0  0
   -3.3572    3.1090    0.6519 H   0  0  0  0  0  0
   -1.8295    3.9112    0.3342 H   0  0  0  0  0  0
    4.3149    1.4650    2.3538 H   0  0  0  0  0  0
    6.6818    1.0121    2.1713 H   0  0  0  0  0  0
    5.9834   -1.2330   -1.4363 H   0  0  0  0  0  0
    3.6168   -0.7770   -1.2686 H   0  0  0  0  0  0
    8.8263    0.3154    2.2084 H   0  0  0  0  0  0
    8.9604   -2.2969   -3.0138 H   0  0  0  0  0  0
   10.0274   -1.0794   -3.6644 H   0  0  0  0  0  0
   10.5264   -4.1129   -3.4292 H   0  0  0  0  0  0
   10.3504   -3.1820   -4.8980 H   0  0  0  0  0  0
   12.5749   -3.8068   -2.1194 H   0  0  0  0  0  0
   13.7598   -2.6667   -2.7111 H   0  0  0  0  0  0
   12.3474   -0.7328   -2.1629 H   0  0  0  0  0  0
   12.4408   -1.7957   -0.7812 H   0  0  0  0  0  0
  1  6  1  0  0  0
  1  2  1  0  0  0
  1 33  1  0  0  0
  1 34  1  0  0  0
  2  3  1  0  0  0
  2 35  1  0  0  0
  2 36  1  0  0  0
  3  8  1  0  0  0
  3  4  1  0  0  0
  3  7  1  0  0  0
  4  5  1  0  0  0
  4 37  1  0  0  0
  4 38  1  0  0  0
  5  6  1  0  0  0
  5 39  1  0  0  0
  5 40  1  0  0  0
  6 41  1  0  0  0
  6 42  1  0  0  0
  7 14  1  0  0  0
  7 43  1  0  0  0
  8  9  2  0  0  0
  8 10  1  0  0  0
 10 11  1  0  0  0
 10 44  1  0  0  0
 11 12  1  0  0  0
 11 45  1  0  0  0
 11 46  1  0  0  0
 12 13  3  0  0  0
 14 16  2  0  0  0
 14 15  1  0  0  0
 15 17  2  0  0  0
 15 21  1  0  0  0
 17 18  1  0  0  0
 17 47  1  0  0  0
 18 19  2  0  0  0
 18 48  1  0  0  0
 19 20  1  0  0  0
 19 22  1  0  0  0
 20 21  2  0  0  0
 20 49  1  0  0  0
 21 50  1  0  0  0
 22 23  1  0  0  0
 22 26  2  0  0  0
 23 24  2  0  0  0
 24 25  1  0  0  0
 24 27  1  0  0  0
 25 26  1  0  0  0
 26 51  1  0  0  0
 27 28  1  0  0  0
 27 32  1  0  0  0
 28 29  1  0  0  0
 28 52  1  0  0  0
 28 53  1  0  0  0
 29 30  1  0  0  0
 29 54  1  0  0  0
 29 55  1  0  0  0
 30 31  1  0  0  0
 31 32  1  0  0  0
 31 56  1  0  0  0
 31 57  1  0  0  0
 32 58  1  0  0  0
 32 59  1  0  0  0
M  END
> <chembl_id>
CHEMBL199358

> <chembl_pref_name>
None

> <s_m_source_file>
sdf/inactives_sanitized.sdf

> <i_m_source_file_index>
187

> <i_lp_mmshare_version>
49012

> <i_m_ct_stereo_status>
1

> <i_f3d_flags>
0

> <s_epik_input>
W0NIMl0xW0NIMl1bQ0gyXVtDSDJdW0NIMl1DMShDKD1PKVtOSF1bQ0gyXUMjTilbTkhdQyg9TyljMltjSF1bY0hdYyhbY0hdW2NIXTIpLWMzbmMoc1tjSF0zKU40W0NIMl1bQ0gyXU9bQ0gyXVtDSDJdNA==

> <s_epik_cmdline>
J2VwaWtfcHl0aG9uJywgJy1waHQnLCAnMC41JywgJy1waCcsICc3LjUnLCAnLW50JywgJy1tYScsICcyMDAnLCAnLWltYWUnLCAnPGluZmlsZS5tYWU+JywgJy1vbWFlJywgJzxvdXRmaWxlLm1hZT4n

> <r_lp_tautomer_probability>
1

> <r_epik_Ionization_Penalty>
  0.0001

> <r_epik_Ionization_Penalty_Charging>
  0.0000

> <r_epik_Ionization_Penalty_Neutral>
  0.0001

> <r_epik_State_Penalty>
 -0.0000

> <r_epik_Charging_Adjusted_Penalty>
0

> <i_epik_Tot_Q>
0

> <i_epik_Tot_abs_Q>
0

> <s_lp_Force_Field>
OPLS3e

> <r_lp_Energy>
42.975391

> <b_lp_Chiralities_Consistent>
1

> <s_lp_Variant>
sdf/inactives_sanitized.sdf:187-1

$$$$
sdf/inactives_sanitized.sdf:188
                    3D
 Schrodinger Suite 2020-1.
 64 65  0  0  1  0            999 V2000
   -2.1702    1.9984   -1.5621 C   0  0  0  0  0  0
    0.0481   -0.0033   -0.5986 C   0  0  0  0  0  0
   -3.6286    1.7683   -2.1435 C   0  0  0  0  0  0
   -0.5325    1.0557    0.0025 N   0  0  0  0  0  0
    2.1752   -2.3317   -1.5157 C   0  0  0  0  0  0
    1.5592   -0.1906   -0.3117 C   0  0  2  0  0  0
   -1.9358    1.4910   -0.1305 C   0  0  1  0  0  0
    2.2883   -0.9526   -1.3505 N   0  0  0  0  0  0
   -3.7832    2.3032   -3.3691 N   0  0  0  0  0  0
   -5.7941    3.5714   -3.9824 C   0  0  0  0  0  0
   -6.2993    3.8374   -2.7475 O   0  0  0  0  0  0
   -1.2981    2.5398   -2.2514 O   0  0  0  0  0  0
   -0.5617   -0.7918   -1.3230 O   0  0  0  0  0  0
    1.5406   -3.1134   -0.8036 O   0  0  0  0  0  0
   -4.4945    1.1684   -1.5042 O   0  0  0  0  0  0
   -6.1291    4.6039   -4.8477 C   0  0  0  0  0  0
   -6.9434    5.0298   -2.8236 C   0  0  0  0  0  0
    2.8693   -2.6888   -2.6135 O   0  0  0  0  0  0
    1.8231   -0.7017    1.1401 C   0  0  0  0  0  0
   -6.8597    5.5353   -4.1093 C   0  0  0  0  0  0
   -5.0243    2.2784   -4.1395 C   0  0  0  0  0  0
    2.9034   -4.0435   -3.0461 C   0  0  0  0  0  0
    3.5867   -4.1281   -4.3988 C   0  0  0  0  0  0
   -2.2502    2.5864    0.9241 C   0  0  0  0  0  0
    3.3110   -0.7922    1.5590 C   0  0  0  0  0  0
    4.8928   -4.6145   -4.4923 C   0  0  0  0  0  0
    2.9027   -3.7222   -5.5474 C   0  0  0  0  0  0
    3.4568   -1.4626    2.9421 C   0  0  0  0  0  0
    4.0279    0.5735    1.4944 C   0  0  0  0  0  0
   -3.7251    3.0106    1.0433 C   0  0  0  0  0  0
    5.5145   -4.6957   -5.7360 C   0  0  0  0  0  0
    3.5253   -3.8029   -6.7903 C   0  0  0  0  0  0
    4.8280   -4.2900   -6.8789 C   0  0  0  0  0  0
    0.0408    1.6452    0.5883 H   0  0  0  0  0  0
    1.9955    0.8068   -0.3797 H   0  0  0  0  0  0
   -2.5466    0.6137    0.0954 H   0  0  0  0  0  0
    2.6753   -0.4216   -2.1169 H   0  0  0  0  0  0
   -2.9943    2.7664   -3.7969 H   0  0  0  0  0  0
   -5.8696    4.6735   -5.8937 H   0  0  0  0  0  0
   -7.4013    5.3852   -1.9123 H   0  0  0  0  0  0
    1.3175   -0.0465    1.8519 H   0  0  0  0  0  0
    1.3535   -1.6764    1.2768 H   0  0  0  0  0  0
   -7.2767    6.4644   -4.4688 H   0  0  0  0  0  0
   -5.6393    1.4081   -3.9015 H   0  0  0  0  0  0
   -4.7404    2.1479   -5.1840 H   0  0  0  0  0  0
    3.4337   -4.6589   -2.3172 H   0  0  0  0  0  0
    1.8940   -4.4498   -3.1327 H   0  0  0  0  0  0
   -1.9340    2.2219    1.9030 H   0  0  0  0  0  0
   -1.6345    3.4697    0.7431 H   0  0  0  0  0  0
    3.8135   -1.4526    0.8516 H   0  0  0  0  0  0
    5.4256   -4.9292   -3.6065 H   0  0  0  0  0  0
    1.8925   -3.3453   -5.4770 H   0  0  0  0  0  0
    2.5072   -1.8495    3.3126 H   0  0  0  0  0  0
    3.8344   -0.7804    3.7038 H   0  0  0  0  0  0
    4.1464   -2.3058    2.8917 H   0  0  0  0  0  0
    4.6822    0.7464    2.3488 H   0  0  0  0  0  0
    3.3230    1.4043    1.4605 H   0  0  0  0  0  0
    4.6510    0.6370    0.6020 H   0  0  0  0  0  0
   -3.8615    3.7027    1.8747 H   0  0  0  0  0  0
   -4.3714    2.1506    1.2215 H   0  0  0  0  0  0
   -4.0756    3.5169    0.1438 H   0  0  0  0  0  0
    6.5238   -5.0722   -5.8146 H   0  0  0  0  0  0
    3.0007   -3.4904   -7.6811 H   0  0  0  0  0  0
    5.3105   -4.3539   -7.8431 H   0  0  0  0  0  0
  1  3  1  0  0  0
  1  7  1  0  0  0
  1 12  2  0  0  0
  2  4  1  0  0  0
  2  6  1  0  0  0
  2 13  2  0  0  0
  3  9  1  0  0  0
  3 15  2  0  0  0
  4  7  1  0  0  0
  4 34  1  0  0  0
  5  8  1  0  0  0
  5 14  2  0  0  0
  5 18  1  0  0  0
  6  8  1  0  0  0
  6 19  1  0  0  0
  6 35  1  0  0  0
  7 24  1  0  0  0
  7 36  1  0  0  0
  8 37  1  0  0  0
  9 21  1  0  0  0
  9 38  1  0  0  0
 10 21  1  0  0  0
 10 11  1  0  0  0
 10 16  2  0  0  0
 11 17  1  0  0  0
 16 20  1  0  0  0
 16 39  1  0  0  0
 17 20  2  0  0  0
 17 40  1  0  0  0
 18 22  1  0  0  0
 19 25  1  0  0  0
 19 41  1  0  0  0
 19 42  1  0  0  0
 20 43  1  0  0  0
 21 44  1  0  0  0
 21 45  1  0  0  0
 22 23  1  0  0  0
 22 46  1  0  0  0
 22 47  1  0  0  0
 23 26  2  0  0  0
 23 27  1  0  0  0
 24 30  1  0  0  0
 24 48  1  0  0  0
 24 49  1  0  0  0
 25 28  1  0  0  0
 25 29  1  0  0  0
 25 50  1  0  0  0
 26 31  1  0  0  0
 26 51  1  0  0  0
 27 32  2  0  0  0
 27 52  1  0  0  0
 28 53  1  0  0  0
 28 54  1  0  0  0
 28 55  1  0  0  0
 29 56  1  0  0  0
 29 57  1  0  0  0
 29 58  1  0  0  0
 30 59  1  0  0  0
 30 60  1  0  0  0
 30 61  1  0  0  0
 31 33  2  0  0  0
 31 62  1  0  0  0
 32 33  1  0  0  0
 32 63  1  0  0  0
 33 64  1  0  0  0
M  END
> <chembl_id>
CHEMBL424074

> <chembl_pref_name>
None

> <s_m_source_file>
sdf/inactives_sanitized.sdf

> <i_m_source_file_index>
188

> <i_lp_mmshare_version>
49012

> <i_m_ct_stereo_status>
1

> <i_f3d_flags>
0

> <s_epik_input>
W2NIXTFbY0hdW2NIXW9jMVtDSDJdW05IXUMoPU8pQyg9TylbQ0BIXShbQ0gyXVtDSDNdKVtOSF1DKD1PKVtDQEBIXShbQ0gyXVtDSF0oW0NIM10pW0NIM10pW05IXUMoPU8pT1tDSDJdYzJbY0hdW2NIXVtjSF1bY0hdW2NIXTI=

> <s_epik_cmdline>
J2VwaWtfcHl0aG9uJywgJy1waHQnLCAnMC41JywgJy1waCcsICc3LjUnLCAnLW50JywgJy1tYScsICcyMDAnLCAnLWltYWUnLCAnPGluZmlsZS5tYWU+JywgJy1vbWFlJywgJzxvdXRmaWxlLm1hZT4n

> <r_lp_tautomer_probability>
1

> <r_epik_Ionization_Penalty>
  0.0000

> <r_epik_Ionization_Penalty_Charging>
  0.0000

> <r_epik_Ionization_Penalty_Neutral>
  0.0000

> <r_epik_State_Penalty>
 -0.0000

> <r_epik_Charging_Adjusted_Penalty>
0

> <i_epik_Tot_Q>
0

> <i_epik_Tot_abs_Q>
0

> <s_epik_Chemistry_Notes>
This compound has an ester and may undergo hydrolysis at high or low pH.

> <s_lp_Force_Field>
OPLS3e

> <r_lp_Energy>
30.57455

> <b_lp_Chiralities_Consistent>
1

> <s_lp_Variant>
sdf/inactives_sanitized.sdf:188-1

$$$$
sdf/inactives_sanitized.sdf:189
                    3D
 Schrodinger Suite 2020-1.
 45 46  0  0  1  0            999 V2000
    2.5500    0.9902   -1.7317 C   0  0  0  0  0  0
    2.0867    0.1411   -2.4959 O   0  0  0  0  0  0
    3.2933    2.0644   -2.1108 O   0  0  0  0  0  0
    3.6425    2.4012   -3.4667 C   0  0  0  0  0  0
    2.3815    2.6963   -4.3163 C   0  0  0  0  0  0
    4.5063    1.2940   -4.1208 C   0  0  0  0  0  0
    4.4805    3.6894   -3.3364 C   0  0  0  0  0  0
    0.0805   -2.6085    0.1266 N   0  0  0  0  0  0
   -0.9850   -3.4949   -0.0006 N   0  0  0  0  0  0
   -2.0484   -2.7566   -0.2053 C   0  0  0  0  0  0
   -1.7641   -1.4290   -0.2248 O   0  0  0  0  0  0
   -0.4225   -1.4036   -0.0099 C   0  0  0  0  0  0
    0.2491   -0.1084    0.0450 C   0  0  0  0  0  0
   -0.3822    0.9299   -0.1688 O   0  0  0  0  0  0
    1.7444   -0.0766    0.3966 C   0  0  1  0  0  0
    2.4238    1.0091   -0.3438 N   0  0  0  0  0  0
    1.9340    0.1498    1.9216 C   0  0  0  0  0  0
    1.4318   -0.9896    2.8354 C   0  0  0  0  0  0
    1.7794   -0.7651    4.3131 C   0  0  0  0  0  0
   -3.4168   -3.2030   -0.3944 C   0  0  0  0  0  0
   -3.9011   -4.5103   -0.3936 C   0  0  0  0  0  0
   -5.2816   -4.5930   -0.6017 C   0  0  0  0  0  0
   -5.8695   -3.3489   -0.7659 C   0  0  0  0  0  0
   -4.7095   -2.0657   -0.6618 S   0  0  0  0  0  0
    2.6473    3.0745   -5.3040 H   0  0  0  0  0  0
    1.7492    3.4457   -3.8385 H   0  0  0  0  0  0
    1.7679    1.8083   -4.4674 H   0  0  0  0  0  0
    3.9430    0.3766   -4.2903 H   0  0  0  0  0  0
    5.3602    1.0370   -3.4928 H   0  0  0  0  0  0
    4.8966    1.6136   -5.0878 H   0  0  0  0  0  0
    4.8143    4.0521   -4.3095 H   0  0  0  0  0  0
    5.3693    3.5281   -2.7247 H   0  0  0  0  0  0
    3.9098    4.4917   -2.8658 H   0  0  0  0  0  0
    2.2513   -1.0111    0.1457 H   0  0  0  0  0  0
    3.0956    1.5608    0.1690 H   0  0  0  0  0  0
    2.9995    0.2913    2.1142 H   0  0  0  0  0  0
    1.4650    1.0902    2.2196 H   0  0  0  0  0  0
    0.3498   -1.0912    2.7480 H   0  0  0  0  0  0
    1.8607   -1.9384    2.5101 H   0  0  0  0  0  0
    1.3971   -1.5780    4.9310 H   0  0  0  0  0  0
    1.3455    0.1640    4.6843 H   0  0  0  0  0  0
    2.8584   -0.7154    4.4636 H   0  0  0  0  0  0
   -3.2729   -5.3765   -0.2454 H   0  0  0  0  0  0
   -5.8288   -5.5238   -0.6312 H   0  0  0  0  0  0
   -6.9123   -3.1291   -0.9404 H   0  0  0  0  0  0
  1 16  1  0  0  0
  1  2  2  0  0  0
  1  3  1  0  0  0
  3  4  1  0  0  0
  4  5  1  0  0  0
  4  6  1  0  0  0
  4  7  1  0  0  0
  5 25  1  0  0  0
  5 26  1  0  0  0
  5 27  1  0  0  0
  6 28  1  0  0  0
  6 29  1  0  0  0
  6 30  1  0  0  0
  7 31  1  0  0  0
  7 32  1  0  0  0
  7 33  1  0  0  0
  8 12  2  0  0  0
  8  9  1  0  0  0
  9 10  2  0  0  0
 10 11  1  0  0  0
 10 20  1  0  0  0
 11 12  1  0  0  0
 12 13  1  0  0  0
 13 14  2  0  0  0
 13 15  1  0  0  0
 15 16  1  0  0  0
 15 17  1  0  0  0
 15 34  1  0  0  0
 16 35  1  0  0  0
 17 18  1  0  0  0
 17 36  1  0  0  0
 17 37  1  0  0  0
 18 19  1  0  0  0
 18 38  1  0  0  0
 18 39  1  0  0  0
 19 40  1  0  0  0
 19 41  1  0  0  0
 19 42  1  0  0  0
 20 21  2  0  0  0
 20 24  1  0  0  0
 21 22  1  0  0  0
 21 43  1  0  0  0
 22 23  2  0  0  0
 22 44  1  0  0  0
 23 24  1  0  0  0
 23 45  1  0  0  0
M  END
> <chembl_id>
CHEMBL210315

> <chembl_pref_name>
None

> <i_m_ct_stereo_status>
1

> <s_m_source_file>
sdf/inactives_sanitized.sdf

> <i_m_source_file_index>
189

> <i_lp_mmshare_version>
49012

> <i_f3d_flags>
0

> <s_epik_input>
W0NIM11DKFtDSDNdKShbQ0gzXSlPQyg9TylbTkhdW0NAQEhdKFtDSDJdW0NIMl1bQ0gzXSlDKD1PKWMobzEpbm5jMS1jMltjSF1bY0hdW2NIXXMy

> <s_epik_cmdline>
J2VwaWtfcHl0aG9uJywgJy1waHQnLCAnMC41JywgJy1waCcsICc3LjUnLCAnLW50JywgJy1tYScsICcyMDAnLCAnLWltYWUnLCAnPGluZmlsZS5tYWU+JywgJy1vbWFlJywgJzxvdXRmaWxlLm1hZT4n

> <r_lp_tautomer_probability>
1

> <r_epik_Ionization_Penalty>
  0.0000

> <r_epik_Ionization_Penalty_Charging>
  0.0000

> <r_epik_Ionization_Penalty_Neutral>
  0.0000

> <r_epik_State_Penalty>
 -0.0000

> <r_epik_Charging_Adjusted_Penalty>
0

> <i_epik_Tot_Q>
0

> <i_epik_Tot_abs_Q>
0

> <s_epik_Chemistry_Notes>
This compound has an ester and may undergo hydrolysis at high or low pH.

> <s_lp_Force_Field>
OPLS3e

> <r_lp_Energy>
17.527334

> <b_lp_Chiralities_Consistent>
1

> <s_lp_Variant>
sdf/inactives_sanitized.sdf:189-1

$$$$
sdf/inactives_sanitized.sdf:190
                    3D
 Schrodinger Suite 2020-1.
 72 75  0  0  1  0            999 V2000
    3.8474   -0.1677   -0.7956 C   0  0  0  0  0  0
    4.1429   -0.9710    0.5156 C   0  0  0  0  0  0
    4.0418   -2.5078    0.3767 C   0  0  0  0  0  0
    4.9613   -3.0267   -0.7462 C   0  0  0  0  0  0
    4.7440   -2.2790   -2.0768 C   0  0  0  0  0  0
    4.8113   -0.7443   -1.8876 C   0  0  0  0  0  0
    2.3512   -0.3991   -1.2194 C   0  0  0  0  0  0
    2.0354   -0.4768   -2.4089 O   0  0  0  0  0  0
   -2.5791    0.1351   -1.6823 O   0  0  0  0  0  0
   -3.7382    0.6381   -2.1808 C   0  0  0  0  0  0
   -3.7142    1.9474   -2.2664 N   0  0  0  0  0  0
   -2.4661    2.3453   -1.7959 N   0  0  0  0  0  0
   -1.8312    1.2470   -1.4588 C   0  0  0  0  0  0
   -0.4885    1.0977   -0.9021 C   0  0  0  0  0  0
    0.2452    2.0859   -0.8001 O   0  0  0  0  0  0
   -0.0446   -0.3016   -0.4490 C   0  0  1  0  0  0
    1.4152   -0.3169   -0.2510 N   0  0  0  0  0  0
   -0.7904   -0.7102    0.8489 C   0  0  0  0  0  0
   -0.4437   -2.1311    1.3398 C   0  0  0  0  0  0
   -1.2330   -2.5383    2.5912 C   0  0  0  0  0  0
    4.0769    1.2721   -0.5425 N   0  0  0  0  0  0
    3.8936    2.3275   -1.3700 C   0  0  0  0  0  0
    4.2175    3.6953   -0.8030 C   0  0  0  0  0  0
    3.4805    2.2099   -2.5252 O   0  0  0  0  0  0
    4.5255    3.8779    0.5544 C   0  0  0  0  0  0
    4.8055    5.1472    1.0516 C   0  0  0  0  0  0
    4.7857    6.2610    0.2139 C   0  0  0  0  0  0
    4.4791    6.0861   -1.1432 C   0  0  0  0  0  0
    4.1975    4.8175   -1.6424 C   0  0  0  0  0  0
    5.0749    7.4774    0.8054 O   0  0  0  0  0  0
    5.1027    8.6757    0.0303 C   0  0  0  0  0  0
    5.4142    9.6732    0.8560 F   0  0  0  0  0  0
    6.0419    8.6294   -0.9164 F   0  0  0  0  0  0
    3.9091    8.9504   -0.4993 F   0  0  0  0  0  0
   -4.8440   -0.2982   -2.5446 C   0  0  0  0  0  0
   -6.0506    0.1974   -3.0489 C   0  0  0  0  0  0
   -7.0822   -0.6752   -3.3837 C   0  0  0  0  0  0
   -6.9215   -2.0539   -3.2179 C   0  0  0  0  0  0
   -5.7139   -2.5509   -2.7156 C   0  0  0  0  0  0
   -4.6824   -1.6778   -2.3807 C   0  0  0  0  0  0
   -8.0660   -2.9936   -3.5953 C   0  0  0  0  0  0
   -7.7113   -4.2790   -3.5405 F   0  0  0  0  0  0
   -9.0855   -2.8053   -2.7573 F   0  0  0  0  0  0
   -8.4803   -2.7324   -4.8359 F   0  0  0  0  0  0
    5.1192   -0.6756    0.9046 H   0  0  0  0  0  0
    3.4975   -0.6278    1.3262 H   0  0  0  0  0  0
    4.3092   -2.9831    1.3212 H   0  0  0  0  0  0
    3.0112   -2.8024    0.1743 H   0  0  0  0  0  0
    6.0017   -2.9112   -0.4379 H   0  0  0  0  0  0
    4.8055   -4.0964   -0.8907 H   0  0  0  0  0  0
    5.4942   -2.5938   -2.8030 H   0  0  0  0  0  0
    3.7809   -2.5640   -2.5018 H   0  0  0  0  0  0
    4.6426   -0.2425   -2.8419 H   0  0  0  0  0  0
    5.8307   -0.4234   -1.6659 H   0  0  0  0  0  0
   -0.2983   -1.0346   -1.2186 H   0  0  0  0  0  0
    1.7207   -0.1801    0.7014 H   0  0  0  0  0  0
   -0.5567   -0.0008    1.6458 H   0  0  0  0  0  0
   -1.8697   -0.6571    0.6951 H   0  0  0  0  0  0
   -0.6427   -2.8516    0.5452 H   0  0  0  0  0  0
    0.6223   -2.2016    1.5605 H   0  0  0  0  0  0
   -0.9686   -3.5481    2.9062 H   0  0  0  0  0  0
   -2.3075   -2.5212    2.4053 H   0  0  0  0  0  0
   -1.0265   -1.8670    3.4254 H   0  0  0  0  0  0
    4.6843    1.4551    0.2424 H   0  0  0  0  0  0
    4.5467    3.0471    1.2444 H   0  0  0  0  0  0
    5.0378    5.2670    2.0998 H   0  0  0  0  0  0
    4.4504    6.9195   -1.8280 H   0  0  0  0  0  0
    3.9614    4.7202   -2.6928 H   0  0  0  0  0  0
   -6.1954    1.2598   -3.1831 H   0  0  0  0  0  0
   -8.0089   -0.2771   -3.7716 H   0  0  0  0  0  0
   -5.5658   -3.6122   -2.5792 H   0  0  0  0  0  0
   -3.7587   -2.0824   -1.9929 H   0  0  0  0  0  0
  1  2  1  0  0  0
  1  6  1  0  0  0
  1  7  1  0  0  0
  1 21  1  0  0  0
  2  3  1  0  0  0
  2 45  1  0  0  0
  2 46  1  0  0  0
  3  4  1  0  0  0
  3 47  1  0  0  0
  3 48  1  0  0  0
  4  5  1  0  0  0
  4 49  1  0  0  0
  4 50  1  0  0  0
  5  6  1  0  0  0
  5 51  1  0  0  0
  5 52  1  0  0  0
  6 53  1  0  0  0
  6 54  1  0  0  0
  7  8  2  0  0  0
  7 17  1  0  0  0
  9 10  1  0  0  0
  9 13  1  0  0  0
 10 11  2  0  0  0
 10 35  1  0  0  0
 11 12  1  0  0  0
 12 13  2  0  0  0
 13 14  1  0  0  0
 14 15  2  0  0  0
 14 16  1  0  0  0
 16 17  1  0  0  0
 16 18  1  0  0  0
 16 55  1  0  0  0
 17 56  1  0  0  0
 18 19  1  0  0  0
 18 57  1  0  0  0
 18 58  1  0  0  0
 19 20  1  0  0  0
 19 59  1  0  0  0
 19 60  1  0  0  0
 20 61  1  0  0  0
 20 62  1  0  0  0
 20 63  1  0  0  0
 21 22  1  0  0  0
 21 64  1  0  0  0
 22 23  1  0  0  0
 22 24  2  0  0  0
 23 25  2  0  0  0
 23 29  1  0  0  0
 25 26  1  0  0  0
 25 65  1  0  0  0
 26 27  2  0  0  0
 26 66  1  0  0  0
 27 28  1  0  0  0
 27 30  1  0  0  0
 28 29  2  0  0  0
 28 67  1  0  0  0
 29 68  1  0  0  0
 30 31  1  0  0  0
 31 32  1  0  0  0
 31 33  1  0  0  0
 31 34  1  0  0  0
 35 36  2  0  0  0
 35 40  1  0  0  0
 36 37  1  0  0  0
 36 69  1  0  0  0
 37 38  2  0  0  0
 37 70  1  0  0  0
 38 39  1  0  0  0
 38 41  1  0  0  0
 39 40  2  0  0  0
 39 71  1  0  0  0
 40 72  1  0  0  0
 41 42  1  0  0  0
 41 43  1  0  0  0
 41 44  1  0  0  0
M  END
> <chembl_id>
CHEMBL208577

> <chembl_pref_name>
None

> <i_m_ct_stereo_status>
1

> <s_m_source_file>
sdf/inactives_sanitized.sdf

> <i_m_source_file_index>
190

> <i_lp_mmshare_version>
49012

> <i_f3d_flags>
0

> <s_epik_input>
RkMoRikoRilPYyhbY0hdW2NIXTEpW2NIXVtjSF1jMUMoPU8pW05IXUMyKFtDSDJdW0NIMl1bQ0gyXVtDSDJdW0NIMl0yKUMoPU8pW05IXVtDQEBIXShbQ0gyXVtDSDJdW0NIM10pQyg9TyljKG5uMylvYzMtYzRbY0hdW2NIXWMoQyhGKShGKUYpW2NIXVtjSF00

> <s_epik_cmdline>
J2VwaWtfcHl0aG9uJywgJy1waHQnLCAnMC41JywgJy1waCcsICc3LjUnLCAnLW50JywgJy1tYScsICcyMDAnLCAnLWltYWUnLCAnPGluZmlsZS5tYWU+JywgJy1vbWFlJywgJzxvdXRmaWxlLm1hZT4n

> <r_lp_tautomer_probability>
1

> <r_epik_Ionization_Penalty>
  0.0000

> <r_epik_Ionization_Penalty_Charging>
  0.0000

> <r_epik_Ionization_Penalty_Neutral>
  0.0000

> <r_epik_State_Penalty>
 -0.0000

> <r_epik_Charging_Adjusted_Penalty>
0

> <i_epik_Tot_Q>
0

> <i_epik_Tot_abs_Q>
0

> <s_lp_Force_Field>
OPLS3e

> <r_lp_Energy>
63.74902

> <b_lp_Chiralities_Consistent>
1

> <s_lp_Variant>
sdf/inactives_sanitized.sdf:190-1

$$$$
sdf/inactives_sanitized.sdf:191
                    3D
 Schrodinger Suite 2020-1.
 73 76  0  0  1  0            999 V2000
   -4.2229    0.7954    2.2695 C   0  0  0  0  0  0
   -2.7431    0.4480    2.2112 C   0  0  0  0  0  0
   -2.3738    0.4357    0.7207 C   0  0  1  0  0  0
   -3.3003    1.4697    0.1753 N   0  0  2  0  0  0
   -4.5912    1.3758    0.9025 C   0  0  0  0  0  0
   -0.8863    0.7785    0.5023 C   0  0  0  0  0  0
   -0.0767   -0.2464    0.1716 N   0  0  0  0  0  0
   -0.4642    1.9157    0.7211 O   0  0  0  0  0  0
   -3.3468    1.8355   -1.5618 S   0  0  0  0  0  0
   -4.2427    3.3820   -1.6779 C   0  0  0  0  0  0
   -1.9807    2.0973   -2.0287 O   0  0  0  0  0  0
   -4.1589    0.7993   -2.2105 O   0  0  0  0  0  0
    1.3733   -0.1669   -0.0819 C   0  0  2  0  0  0
    1.6198    0.5284   -1.4283 C   0  0  0  0  0  0
    1.9495   -1.6093   -0.0641 C   0  0  0  0  0  0
    3.4607   -1.7295    0.0511 C   0  0  0  0  0  0
    5.4856   -1.4923    1.3636 C   0  0  0  0  0  0
    6.2495   -1.7361    0.2290 C   0  0  0  0  0  0
    5.6355   -1.9570   -0.9975 C   0  0  0  0  0  0
    4.2507   -1.9446   -1.0988 C   0  0  0  0  0  0
    0.8123    0.5339   -2.3641 O   0  0  0  0  0  0
   -3.5555    4.5883   -1.5413 C   0  0  0  0  0  0
   -4.2519    5.7914   -1.6094 C   0  0  0  0  0  0
   -5.6334    5.8026   -1.8084 C   0  0  0  0  0  0
   -5.6236    3.3782   -1.8782 C   0  0  0  0  0  0
   -6.3174    4.5834   -1.9438 C   0  0  0  0  0  0
    3.0189    1.2603   -1.5694 C   0  0  0  0  0  0
    3.3112    1.5699   -2.8461 N   0  0  0  0  0  0
    4.0992   -1.4764    1.2837 C   0  0  0  0  0  0
    3.7335    1.4864   -0.5911 O   0  0  0  0  0  0
    4.5498    2.2135   -3.2748 C   0  0  0  0  0  0
    4.6066    3.7268   -2.9886 C   0  0  0  0  0  0
    5.8696    4.3780   -3.5320 C   0  0  0  0  0  0
    5.8937    4.8735   -4.8387 C   0  0  0  0  0  0
    7.0536    5.4613   -5.3371 C   0  0  0  0  0  0
    8.1844    5.5513   -4.5277 C   0  0  0  0  0  0
    8.1666    5.0587   -3.2244 C   0  0  0  0  0  0
    7.0073    4.4705   -2.7255 C   0  0  0  0  0  0
   -6.2383    7.0440   -1.8552 O   0  0  0  0  0  0
   -7.6477    7.1238   -2.0393 C   0  0  0  0  0  0
   -4.4144    1.5185    3.0634 H   0  0  0  0  0  0
   -4.8270   -0.0872    2.4854 H   0  0  0  0  0  0
   -2.1561    1.1714    2.7824 H   0  0  0  0  0  0
   -2.5593   -0.5262    2.6665 H   0  0  0  0  0  0
   -2.5911   -0.5427    0.2860 H   0  0  0  0  0  0
   -5.1532    2.3097    0.8784 H   0  0  0  0  0  0
   -5.2403    0.6821    0.3654 H   0  0  0  0  0  0
   -0.4866   -1.1590    0.0343 H   0  0  0  0  0  0
    1.8101    0.3963    0.7465 H   0  0  0  0  0  0
    1.5286   -2.1483    0.7869 H   0  0  0  0  0  0
    1.6053   -2.1735   -0.9335 H   0  0  0  0  0  0
    5.9722   -1.3050    2.3095 H   0  0  0  0  0  0
    7.3272   -1.7427    0.2986 H   0  0  0  0  0  0
    6.2376   -2.1296   -1.8772 H   0  0  0  0  0  0
    3.7824   -2.0946   -2.0606 H   0  0  0  0  0  0
   -2.4876    4.5973   -1.3774 H   0  0  0  0  0  0
   -3.7155    6.7230   -1.5025 H   0  0  0  0  0  0
   -6.1630    2.4475   -1.9759 H   0  0  0  0  0  0
   -7.3852    4.5517   -2.0972 H   0  0  0  0  0  0
    2.6459    1.3336   -3.5684 H   0  0  0  0  0  0
    3.5131   -1.2648    2.1660 H   0  0  0  0  0  0
    5.4264    1.7148   -2.8550 H   0  0  0  0  0  0
    4.6679    2.0510   -4.3469 H   0  0  0  0  0  0
    3.7333    4.2243   -3.4138 H   0  0  0  0  0  0
    4.5425    3.9113   -1.9147 H   0  0  0  0  0  0
    5.0181    4.8014   -5.4674 H   0  0  0  0  0  0
    7.0771    5.8449   -6.3465 H   0  0  0  0  0  0
    9.0842    6.0066   -4.9144 H   0  0  0  0  0  0
    9.0477    5.1321   -2.6041 H   0  0  0  0  0  0
    6.9948    4.0859   -1.7159 H   0  0  0  0  0  0
   -7.9509    8.1707   -2.0448 H   0  0  0  0  0  0
   -8.1857    6.6295   -1.2288 H   0  0  0  0  0  0
   -7.9530    6.6868   -2.9913 H   0  0  0  0  0  0
  1  5  1  0  0  0
  1  2  1  0  0  0
  1 41  1  0  0  0
  1 42  1  0  0  0
  2  3  1  0  0  0
  2 43  1  0  0  0
  2 44  1  0  0  0
  3  6  1  0  0  0
  3  4  1  0  0  0
  3 45  1  0  0  0
  4  5  1  0  0  0
  4  9  1  0  0  0
  5 46  1  0  0  0
  5 47  1  0  0  0
  6  7  1  0  0  0
  6  8  2  0  0  0
  7 13  1  0  0  0
  7 48  1  0  0  0
  9 10  1  0  0  0
  9 11  2  0  0  0
  9 12  2  0  0  0
 10 22  2  0  0  0
 10 25  1  0  0  0
 13 14  1  0  0  0
 13 15  1  0  0  0
 13 49  1  0  0  0
 14 21  2  0  0  0
 14 27  1  0  0  0
 15 16  1  0  0  0
 15 50  1  0  0  0
 15 51  1  0  0  0
 16 20  2  0  0  0
 16 29  1  0  0  0
 17 29  2  0  0  0
 17 18  1  0  0  0
 17 52  1  0  0  0
 18 19  2  0  0  0
 18 53  1  0  0  0
 19 20  1  0  0  0
 19 54  1  0  0  0
 20 55  1  0  0  0
 22 23  1  0  0  0
 22 56  1  0  0  0
 23 24  2  0  0  0
 23 57  1  0  0  0
 24 26  1  0  0  0
 24 39  1  0  0  0
 25 26  2  0  0  0
 25 58  1  0  0  0
 26 59  1  0  0  0
 27 28  1  0  0  0
 27 30  2  0  0  0
 28 31  1  0  0  0
 28 60  1  0  0  0
 29 61  1  0  0  0
 31 32  1  0  0  0
 31 62  1  0  0  0
 31 63  1  0  0  0
 32 33  1  0  0  0
 32 64  1  0  0  0
 32 65  1  0  0  0
 33 34  2  0  0  0
 33 38  1  0  0  0
 34 35  1  0  0  0
 34 66  1  0  0  0
 35 36  2  0  0  0
 35 67  1  0  0  0
 36 37  1  0  0  0
 36 68  1  0  0  0
 37 38  2  0  0  0
 37 69  1  0  0  0
 38 70  1  0  0  0
 39 40  1  0  0  0
 40 71  1  0  0  0
 40 72  1  0  0  0
 40 73  1  0  0  0
M  END
> <chembl_id>
CHEMBL215492

> <chembl_pref_name>
None

> <i_m_ct_stereo_status>
1

> <s_m_source_file>
sdf/inactives_sanitized.sdf

> <i_m_source_file_index>
191

> <i_lp_mmshare_version>
49012

> <i_f3d_flags>
0

> <s_epik_input>
W2NIXTFbY0hdYyhPW0NIM10pW2NIXVtjSF1jMVMoPU8pKD1PKU4yW0NIMl1bQ0gyXVtDSDJdW0NAQEhdMkMoPU8pW05IXVtDQEBIXShbQ0gyXWMzW2NIXVtjSF1bY0hdW2NIXVtjSF0zKUMoPU8pQyg9TylbTkhdW0NIMl1bQ0gyXWM0W2NIXVtjSF1bY0hdW2NIXVtjSF00

> <s_epik_cmdline>
J2VwaWtfcHl0aG9uJywgJy1waHQnLCAnMC41JywgJy1waCcsICc3LjUnLCAnLW50JywgJy1tYScsICcyMDAnLCAnLWltYWUnLCAnPGluZmlsZS5tYWU+JywgJy1vbWFlJywgJzxvdXRmaWxlLm1hZT4n

> <r_lp_tautomer_probability>
1

> <r_epik_Ionization_Penalty>
  0.0000

> <r_epik_Ionization_Penalty_Charging>
  0.0000

> <r_epik_Ionization_Penalty_Neutral>
  0.0000

> <r_epik_State_Penalty>
 -0.0000

> <r_epik_Charging_Adjusted_Penalty>
0

> <i_epik_Tot_Q>
0

> <i_epik_Tot_abs_Q>
0

> <s_lp_Force_Field>
OPLS3e

> <r_lp_Energy>
51.959838

> <b_lp_Chiralities_Consistent>
1

> <s_lp_Variant>
sdf/inactives_sanitized.sdf:191-1

$$$$
sdf/inactives_sanitized.sdf:192
                    3D
 Schrodinger Suite 2020-1.
 79 81  0  0  1  0            999 V2000
    5.2849   -0.5385    3.0229 S   0  0  0  0  0  0
   -3.9261    1.0315   -1.4989 N   0  0  0  0  0  0
   -4.6089    0.9282   -2.6601 C   0  0  0  0  0  0
   -2.7029    1.5795   -1.3087 C   0  0  0  0  0  0
    3.5578   -0.9030    2.6790 C   0  0  0  0  0  0
   -0.1596    0.0597   -0.1681 C   0  0  0  0  0  0
   -0.7374    1.2178    0.2047 N   0  0  0  0  0  0
   -2.1766    1.4999    0.1443 C   0  0  1  0  0  0
   -6.5352   -0.1567   -3.5660 N   0  0  0  0  0  0
   -5.7425    0.2252   -2.4700 N   0  0  0  0  0  0
    2.9353   -0.3421    1.6301 C   0  0  0  0  0  0
    5.7350    0.5596    2.1582 O   0  0  0  0  0  0
    5.4482   -0.4487    4.4786 O   0  0  0  0  0  0
    6.1149   -2.0243    2.4618 C   0  0  0  0  0  0
   -4.2614    1.4072   -3.7464 O   0  0  0  0  0  0
   -2.0154    2.1421   -2.1681 O   0  0  0  0  0  0
   -0.7952   -0.9086   -0.5923 O   0  0  0  0  0  0
    1.3801   -0.0107   -0.0195 C   0  0  1  0  0  0
   -2.4817    2.8146    0.9118 C   0  0  0  0  0  0
    1.6162   -0.5920    1.2614 N   0  5  0  0  0  0
   -8.4058   -1.8167   -4.9024 O   0  0  0  0  0  0
    2.0739   -0.7839   -1.1922 C   0  0  0  0  0  0
   -7.9559   -0.1296   -3.2109 C   0  0  0  0  0  0
   -6.1452   -1.4761   -4.0773 C   0  0  0  0  0  0
    1.9154   -2.3252   -1.2397 C   0  0  0  0  0  0
    2.8778   -2.9815   -2.2187 C   0  0  0  0  0  0
   -7.0323   -1.8584   -5.2812 C   0  0  0  0  0  0
   -8.8117   -0.5344   -4.4308 C   0  0  0  0  0  0
   -2.1443    2.7926    2.4228 C   0  0  0  0  0  0
    6.4395   -3.0353    3.3698 C   0  0  0  0  0  0
    6.4213   -2.1682    1.1060 C   0  0  0  0  0  0
    4.0793   -3.5244   -1.7548 C   0  0  0  0  0  0
    2.5644   -3.0320   -3.5795 C   0  0  0  0  0  0
   -2.9324    1.7078    3.1879 C   0  0  0  0  0  0
   -2.3189    4.1925    3.0501 C   0  0  0  0  0  0
    7.0545   -3.3242    0.6582 C   0  0  0  0  0  0
    7.0722   -4.1912    2.9195 C   0  0  0  0  0  0
    3.4512   -3.6253   -4.4744 C   0  0  0  0  0  0
    4.9651   -4.1183   -2.6497 C   0  0  0  0  0  0
    7.3765   -4.3305    1.5666 C   0  0  0  0  0  0
    4.6471   -4.1656   -4.0056 C   0  0  0  0  0  0
   -4.3563    0.6119   -0.6882 H   0  0  0  0  0  0
    3.0734   -1.6024    3.3443 H   0  0  0  0  0  0
   -0.1551    1.9662    0.5507 H   0  0  0  0  0  0
   -2.6891    0.6743    0.6429 H   0  0  0  0  0  0
   -5.8570   -0.3905   -1.6780 H   0  0  0  0  0  0
    3.5092    0.3422    1.0183 H   0  0  0  0  0  0
    1.7172    1.0252   -0.1287 H   0  0  0  0  0  0
   -1.9393    3.6352    0.4371 H   0  0  0  0  0  0
   -3.5390    3.0658    0.8054 H   0  0  0  0  0  0
    1.7645   -0.3664   -2.1522 H   0  0  0  0  0  0
    3.1416   -0.5603   -1.1512 H   0  0  0  0  0  0
   -8.1518   -0.8067   -2.3773 H   0  0  0  0  0  0
   -8.2335    0.8736   -2.8836 H   0  0  0  0  0  0
   -5.0983   -1.4589   -4.3845 H   0  0  0  0  0  0
   -6.2368   -2.2284   -3.2916 H   0  0  0  0  0  0
    2.0662   -2.7647   -0.2528 H   0  0  0  0  0  0
    0.8971   -2.5994   -1.5159 H   0  0  0  0  0  0
   -6.7925   -2.8684   -5.6141 H   0  0  0  0  0  0
   -6.8499   -1.1978   -6.1312 H   0  0  0  0  0  0
   -9.8633   -0.5842   -4.1481 H   0  0  0  0  0  0
   -8.7374    0.2068   -5.2290 H   0  0  0  0  0  0
   -1.0856    2.5483    2.5204 H   0  0  0  0  0  0
    6.2006   -2.9321    4.4181 H   0  0  0  0  0  0
    6.1636   -1.3920    0.4000 H   0  0  0  0  0  0
    4.3270   -3.4853   -0.7039 H   0  0  0  0  0  0
    1.6389   -2.6092   -3.9428 H   0  0  0  0  0  0
   -3.7913    1.3496    2.6201 H   0  0  0  0  0  0
   -3.3089    2.0593    4.1485 H   0  0  0  0  0  0
   -2.2960    0.8469    3.3938 H   0  0  0  0  0  0
   -3.1352    4.2324    3.7713 H   0  0  0  0  0  0
   -2.5283    4.9546    2.2988 H   0  0  0  0  0  0
   -1.4109    4.4980    3.5707 H   0  0  0  0  0  0
    7.2913   -3.4409   -0.3889 H   0  0  0  0  0  0
    7.3242   -4.9774    3.6157 H   0  0  0  0  0  0
    3.2132   -3.6653   -5.5271 H   0  0  0  0  0  0
    5.8943   -4.5390   -2.2943 H   0  0  0  0  0  0
    7.8661   -5.2280    1.2184 H   0  0  0  0  0  0
    5.3348   -4.6251   -4.7002 H   0  0  0  0  0  0
  1  5  1  0  0  0
  1 12  2  0  0  0
  1 13  2  0  0  0
  1 14  1  0  0  0
  2  4  1  0  0  0
  2  3  1  0  0  0
  2 42  1  0  0  0
  3 10  1  0  0  0
  3 15  2  0  0  0
  4  8  1  0  0  0
  4 16  2  0  0  0
  5 11  2  0  0  0
  5 43  1  0  0  0
  6 18  1  0  0  0
  6  7  1  0  0  0
  6 17  2  0  0  0
  7  8  1  0  0  0
  7 44  1  0  0  0
  8 19  1  0  0  0
  8 45  1  0  0  0
  9 10  1  0  0  0
  9 23  1  0  0  0
  9 24  1  0  0  0
 10 46  1  0  0  0
 11 20  1  0  0  0
 11 47  1  0  0  0
 14 30  2  0  0  0
 14 31  1  0  0  0
 18 20  1  0  0  0
 18 22  1  0  0  0
 18 48  1  0  0  0
 19 29  1  0  0  0
 19 49  1  0  0  0
 19 50  1  0  0  0
 21 27  1  0  0  0
 21 28  1  0  0  0
 22 25  1  0  0  0
 22 51  1  0  0  0
 22 52  1  0  0  0
 23 28  1  0  0  0
 23 53  1  0  0  0
 23 54  1  0  0  0
 24 27  1  0  0  0
 24 55  1  0  0  0
 24 56  1  0  0  0
 25 26  1  0  0  0
 25 57  1  0  0  0
 25 58  1  0  0  0
 26 32  2  0  0  0
 26 33  1  0  0  0
 27 59  1  0  0  0
 27 60  1  0  0  0
 28 61  1  0  0  0
 28 62  1  0  0  0
 29 34  1  0  0  0
 29 35  1  0  0  0
 29 63  1  0  0  0
 30 37  1  0  0  0
 30 64  1  0  0  0
 31 36  2  0  0  0
 31 65  1  0  0  0
 32 39  1  0  0  0
 32 66  1  0  0  0
 33 38  2  0  0  0
 33 67  1  0  0  0
 34 68  1  0  0  0
 34 69  1  0  0  0
 34 70  1  0  0  0
 35 71  1  0  0  0
 35 72  1  0  0  0
 35 73  1  0  0  0
 36 40  1  0  0  0
 36 74  1  0  0  0
 37 40  2  0  0  0
 37 75  1  0  0  0
 38 41  1  0  0  0
 38 76  1  0  0  0
 39 41  2  0  0  0
 39 77  1  0  0  0
 40 78  1  0  0  0
 41 79  1  0  0  0
M  CHG  1  20  -1
M  END
> <chembl_id>
CHEMBL3142832

> <chembl_pref_name>
None

> <i_m_ct_stereo_status>
1

> <s_m_source_file>
sdf/inactives_sanitized.sdf

> <i_m_source_file_index>
192

> <i_lp_mmshare_version>
49012

> <i_f3d_flags>
0

> <s_epik_input>
W2NIXTFbY0hdW2NIXVtjSF1bY0hdYzFTKD1PKSg9TykvW0NIXT1bQ0hdL1tOSF1bQ0BASF0oW0NIMl1bQ0gyXWMyW2NIXVtjSF1bY0hdW2NIXVtjSF0yKUMoPU8pW05IXVtDQEBIXShbQ0gyXVtDSF0oW0NIM10pW0NIM10pQyg9TylbTkhdQyg9TylbTkhdTjNbQ0gyXVtDSDJdT1tDSDJdW0NIMl0z

> <s_epik_cmdline>
J2VwaWtfcHl0aG9uJywgJy1waHQnLCAnMC41JywgJy1waCcsICc3LjUnLCAnLW50JywgJy1tYScsICcyMDAnLCAnLWltYWUnLCAnPGluZmlsZS5tYWU+JywgJy1vbWFlJywgJzxvdXRmaWxlLm1hZT4n

> <r_lp_tautomer_probability>
1

> <r_epik_Ionization_Penalty>
  0.0064

> <r_epik_Ionization_Penalty_Charging>
  0.0000

> <r_epik_Ionization_Penalty_Neutral>
  0.0064

> <r_epik_State_Penalty>
 -0.0000

> <r_epik_Charging_Adjusted_Penalty>
0

> <i_epik_Tot_Q>
-1

> <i_epik_Tot_abs_Q>
1

> <s_epik_Chemistry_Notes>
This compound has an imine and may undergo hydrolysis.

> <s_lp_Force_Field>
OPLS3e

> <r_lp_Energy>
29.926968

> <b_lp_Chiralities_Consistent>
1

> <s_lp_Variant>
sdf/inactives_sanitized.sdf:192-1

$$$$
sdf/inactives_sanitized.sdf:193
                    3D
 Schrodinger Suite 2020-1.
 62 64  0  0  1  0            999 V2000
   -4.7476    1.1765   -0.2588 N   0  0  0  0  0  0
   -4.2279    0.8746    0.9761 C   0  0  0  0  0  0
   -2.7634    0.3837    0.9390 C   0  0  0  0  0  0
   -2.5029    1.2076   -1.4596 C   0  0  0  0  0  0
   -4.0058    0.8739   -1.5167 C   0  0  0  0  0  0
   -1.9052    1.2284   -0.0363 C   0  0  2  0  0  0
    0.1417   -0.2162   -0.2978 C   0  0  0  0  0  0
   -0.4591    0.9586   -0.0248 N   0  0  0  0  0  0
    2.4244   -1.3452    1.8423 C   0  0  0  0  0  0
    1.6836   -0.2160   -0.2541 C   0  0  1  0  0  0
    2.2199   -1.3802    0.4686 N   0  0  0  0  0  0
   -4.8427    0.9672    2.0401 O   0  0  0  0  0  0
   -1.8407    1.3878   -2.4822 O   0  0  0  0  0  0
   -0.4595   -1.2437   -0.6163 O   0  0  0  0  0  0
    2.3045   -0.1464   -1.6715 C   0  0  0  0  0  0
    2.1997   -0.3922    2.5932 O   0  0  0  0  0  0
   -6.1777    1.5493   -0.3506 C   0  0  0  0  0  0
    2.9156   -2.5358    2.2353 O   0  0  0  0  0  0
    3.2454   -2.7769    3.6000 C   0  0  0  0  0  0
    3.8061    0.0887   -1.7072 C   0  0  0  0  0  0
    3.7563   -4.1987    3.7938 C   0  0  0  0  0  0
   -7.0664    0.3388   -0.6954 C   0  0  0  0  0  0
   -6.4437    2.7471   -1.2852 C   0  0  0  0  0  0
    4.7035   -1.0007   -1.6822 C   0  0  0  0  0  0
    4.3171    1.3989   -1.5925 C   0  0  0  0  0  0
    3.4024   -4.8975    4.9510 C   0  0  0  0  0  0
    4.5873   -4.8007    2.8419 C   0  0  0  0  0  0
    5.6885    1.6065   -1.5277 C   0  0  0  0  0  0
    6.0717   -0.7719   -1.6160 C   0  0  0  0  0  0
    3.8658   -6.1954    5.1512 C   0  0  0  0  0  0
    5.0496   -6.0988    3.0422 C   0  0  0  0  0  0
    6.5618    0.5262   -1.5456 C   0  0  0  0  0  0
    4.6859   -6.7908    4.1954 C   0  0  0  0  0  0
   -2.3537    0.4480    1.9483 H   0  0  0  0  0  0
   -2.7661   -0.6734    0.6686 H   0  0  0  0  0  0
   -4.4620    1.3338   -2.3913 H   0  0  0  0  0  0
   -4.0773   -0.2011   -1.6863 H   0  0  0  0  0  0
   -1.9628    2.2716    0.2803 H   0  0  0  0  0  0
    0.1289    1.7419    0.2211 H   0  0  0  0  0  0
    2.0092    0.7047    0.2392 H   0  0  0  0  0  0
    2.4111   -2.2280   -0.0450 H   0  0  0  0  0  0
    2.0910   -1.0668   -2.2186 H   0  0  0  0  0  0
    1.8320    0.6527   -2.2466 H   0  0  0  0  0  0
   -6.5145    1.9029    0.6256 H   0  0  0  0  0  0
    4.0120   -2.0759    3.9341 H   0  0  0  0  0  0
    2.3582   -2.6206    4.2166 H   0  0  0  0  0  0
   -8.1091    0.6407   -0.7993 H   0  0  0  0  0  0
   -7.0346   -0.4148    0.0922 H   0  0  0  0  0  0
   -6.7772   -0.1212   -1.6410 H   0  0  0  0  0  0
   -7.4984    3.0229   -1.2580 H   0  0  0  0  0  0
   -6.2238    2.5229   -2.3285 H   0  0  0  0  0  0
   -5.8732    3.6256   -0.9819 H   0  0  0  0  0  0
    4.3305   -2.0139   -1.7155 H   0  0  0  0  0  0
    3.6445    2.2434   -1.5574 H   0  0  0  0  0  0
    2.7677   -4.4389    5.6955 H   0  0  0  0  0  0
    4.8765   -4.2671    1.9481 H   0  0  0  0  0  0
    6.0774    2.6114   -1.4540 H   0  0  0  0  0  0
    6.7569   -1.6066   -1.6109 H   0  0  0  0  0  0
    3.5906   -6.7377    6.0438 H   0  0  0  0  0  0
    5.6882   -6.5666    2.3074 H   0  0  0  0  0  0
    7.6270    0.6962   -1.4913 H   0  0  0  0  0  0
    5.0446   -7.7976    4.3507 H   0  0  0  0  0  0
  1  2  1  0  0  0
  1  5  1  0  0  0
  1 17  1  0  0  0
  2  3  1  0  0  0
  2 12  2  0  0  0
  3  6  1  0  0  0
  3 34  1  0  0  0
  3 35  1  0  0  0
  4  5  1  0  0  0
  4  6  1  0  0  0
  4 13  2  0  0  0
  5 36  1  0  0  0
  5 37  1  0  0  0
  6  8  1  0  0  0
  6 38  1  0  0  0
  7  8  1  0  0  0
  7 10  1  0  0  0
  7 14  2  0  0  0
  8 39  1  0  0  0
  9 11  1  0  0  0
  9 16  2  0  0  0
  9 18  1  0  0  0
 10 11  1  0  0  0
 10 15  1  0  0  0
 10 40  1  0  0  0
 11 41  1  0  0  0
 15 20  1  0  0  0
 15 42  1  0  0  0
 15 43  1  0  0  0
 17 22  1  0  0  0
 17 23  1  0  0  0
 17 44  1  0  0  0
 18 19  1  0  0  0
 19 21  1  0  0  0
 19 45  1  0  0  0
 19 46  1  0  0  0
 20 24  2  0  0  0
 20 25  1  0  0  0
 21 26  2  0  0  0
 21 27  1  0  0  0
 22 47  1  0  0  0
 22 48  1  0  0  0
 22 49  1  0  0  0
 23 50  1  0  0  0
 23 51  1  0  0  0
 23 52  1  0  0  0
 24 29  1  0  0  0
 24 53  1  0  0  0
 25 28  2  0  0  0
 25 54  1  0  0  0
 26 30  1  0  0  0
 26 55  1  0  0  0
 27 31  2  0  0  0
 27 56  1  0  0  0
 28 32  1  0  0  0
 28 57  1  0  0  0
 29 32  2  0  0  0
 29 58  1  0  0  0
 30 33  2  0  0  0
 30 59  1  0  0  0
 31 33  1  0  0  0
 31 60  1  0  0  0
 32 61  1  0  0  0
 33 62  1  0  0  0
M  END
> <chembl_id>
CHEMBL100017

> <chembl_pref_name>
None

> <i_m_ct_stereo_status>
1

> <s_m_source_file>
sdf/inactives_sanitized.sdf

> <i_m_source_file_index>
193

> <i_lp_mmshare_version>
49012

> <i_f3d_flags>
0

> <s_epik_input>
W0NIM11bQ0hdKFtDSDNdKU4xQyg9TylbQ0gyXVtDQEhdKEMoPU8pW0NIMl0xKVtOSF1DKD1PKVtDQEhdKFtDSDJdYzJbY0hdW2NIXVtjSF1bY0hdW2NIXTIpW05IXUMoPU8pT1tDSDJdYzNbY0hdW2NIXVtjSF1bY0hdW2NIXTM=

> <s_epik_cmdline>
J2VwaWtfcHl0aG9uJywgJy1waHQnLCAnMC41JywgJy1waCcsICc3LjUnLCAnLW50JywgJy1tYScsICcyMDAnLCAnLWltYWUnLCAnPGluZmlsZS5tYWU+JywgJy1vbWFlJywgJzxvdXRmaWxlLm1hZT4n

> <r_lp_tautomer_probability>
1

> <r_epik_Ionization_Penalty>
  0.0000

> <r_epik_Ionization_Penalty_Charging>
  0.0000

> <r_epik_Ionization_Penalty_Neutral>
  0.0000

> <r_epik_State_Penalty>
 -0.0000

> <r_epik_Charging_Adjusted_Penalty>
0

> <i_epik_Tot_Q>
0

> <i_epik_Tot_abs_Q>
0

> <s_epik_Chemistry_Notes>
This compound has an ester and may undergo hydrolysis at high or low pH.

> <s_lp_Force_Field>
OPLS3e

> <r_lp_Energy>
52.151692

> <b_lp_Chiralities_Consistent>
1

> <s_lp_Variant>
sdf/inactives_sanitized.sdf:193-1

$$$$
sdf/inactives_sanitized.sdf:194
                    3D
 Schrodinger Suite 2020-1.
 64 67  0  0  1  0            999 V2000
   -0.2957    2.2016   -0.1048 O   0  0  0  0  0  0
   -0.5696    0.9991   -0.1305 C   0  0  0  0  0  0
   -2.0353    0.5354   -0.0074 C   0  0  1  0  0  0
   -2.4706    0.9337    1.3144 N   0  0  0  0  0  0
   -3.2781    0.2257    2.1663 C   0  0  0  0  0  0
   -3.6346   -1.0439    1.8020 O   0  0  0  0  0  0
   -4.4314   -1.4549    2.8238 C   0  0  0  0  0  0
   -5.0882   -2.6786    2.9859 C   0  0  0  0  0  0
   -5.8463   -2.8236    4.1511 C   0  0  0  0  0  0
   -5.9381   -1.7952    5.0961 C   0  0  0  0  0  0
   -5.2749   -0.5750    4.9185 C   0  0  0  0  0  0
   -4.5070   -0.4071    3.7562 C   0  0  0  0  0  0
   -3.7615    0.6501    3.3132 N   0  0  0  0  0  0
   -2.9190    1.1324   -1.1386 C   0  0  0  0  0  0
   -4.4085    0.6963   -1.1286 C   0  0  0  0  0  0
   -4.6063   -0.8073   -1.4441 C   0  0  0  0  0  0
   -6.0905   -1.2116   -1.3365 C   0  0  0  0  0  0
   -6.9829   -0.3420   -2.2488 C   0  0  0  0  0  0
   -6.7431    1.1695   -2.0428 C   0  0  0  0  0  0
   -5.2444    1.5239   -2.1325 C   0  0  0  0  0  0
    0.3478    0.0257   -0.2645 N   0  0  0  0  0  0
    1.7904    0.2566   -0.3351 C   0  0  0  0  0  0
    2.4266    0.6569    1.0116 C   0  0  0  0  0  0
    2.3114   -0.3760    2.0373 N   0  0  0  0  0  0
    2.8473   -0.1913    3.3234 C   0  0  0  0  0  0
    2.4855   -1.1102    4.3092 C   0  0  0  0  0  0
    2.9788   -0.9827    5.6046 C   0  0  0  0  0  0
    3.7145    0.8595    3.6489 C   0  0  0  0  0  0
    4.2059    0.9870    4.9457 C   0  0  0  0  0  0
    3.8398    0.0630    5.9364 C   0  0  0  0  0  0
    4.2764    0.1098    7.2465 O   0  0  0  0  0  0
    5.1481    1.1598    7.6511 C   0  0  0  0  0  0
   -2.0874   -0.5494   -0.1088 H   0  0  0  0  0  0
   -2.2173    1.8844    1.5432 H   0  0  0  0  0  0
   -5.0133   -3.4674    2.2524 H   0  0  0  0  0  0
   -6.3736   -3.7501    4.3268 H   0  0  0  0  0  0
   -6.5355   -1.9474    5.9834 H   0  0  0  0  0  0
   -5.3537    0.2113    5.6547 H   0  0  0  0  0  0
   -2.8833    2.2218   -1.0706 H   0  0  0  0  0  0
   -2.4898    0.8759   -2.1094 H   0  0  0  0  0  0
   -4.8222    0.8860   -0.1366 H   0  0  0  0  0  0
   -4.2117   -1.0357   -2.4355 H   0  0  0  0  0  0
   -4.0187   -1.4266   -0.7681 H   0  0  0  0  0  0
   -6.2098   -2.2643   -1.5947 H   0  0  0  0  0  0
   -6.4199   -1.1131   -0.3008 H   0  0  0  0  0  0
   -6.7821   -0.5964   -3.2907 H   0  0  0  0  0  0
   -8.0334   -0.5790   -2.0774 H   0  0  0  0  0  0
   -7.3061    1.7397   -2.7827 H   0  0  0  0  0  0
   -7.1301    1.4695   -1.0677 H   0  0  0  0  0  0
   -5.1102    2.5886   -1.9362 H   0  0  0  0  0  0
   -4.8687    1.3794   -3.1470 H   0  0  0  0  0  0
    0.0420   -0.9364   -0.2899 H   0  0  0  0  0  0
    2.2438   -0.6725   -0.6828 H   0  0  0  0  0  0
    2.0196    1.0033   -1.0977 H   0  0  0  0  0  0
    3.4850    0.8728    0.8614 H   0  0  0  0  0  0
    1.9935    1.5888    1.3779 H   0  0  0  0  0  0
    1.5035   -0.9792    1.9786 H   0  0  0  0  0  0
    1.8187   -1.9287    4.0783 H   0  0  0  0  0  0
    2.6885   -1.7011    6.3573 H   0  0  0  0  0  0
    4.0158    1.5880    2.9115 H   0  0  0  0  0  0
    4.8693    1.8103    5.1625 H   0  0  0  0  0  0
    5.3898    1.0399    8.7070 H   0  0  0  0  0  0
    4.6793    2.1373    7.5288 H   0  0  0  0  0  0
    6.0860    1.1390    7.0941 H   0  0  0  0  0  0
  1  2  2  0  0  0
  2  3  1  0  0  0
  2 21  1  0  0  0
  3  4  1  0  0  0
  3 14  1  0  0  0
  3 33  1  0  0  0
  4  5  1  0  0  0
  4 34  1  0  0  0
  5  6  1  0  0  0
  5 13  2  0  0  0
  6  7  1  0  0  0
  7  8  2  0  0  0
  7 12  1  0  0  0
  8  9  1  0  0  0
  8 35  1  0  0  0
  9 10  2  0  0  0
  9 36  1  0  0  0
 10 11  1  0  0  0
 10 37  1  0  0  0
 11 12  2  0  0  0
 11 38  1  0  0  0
 12 13  1  0  0  0
 14 15  1  0  0  0
 14 39  1  0  0  0
 14 40  1  0  0  0
 15 16  1  0  0  0
 15 20  1  0  0  0
 15 41  1  0  0  0
 16 17  1  0  0  0
 16 42  1  0  0  0
 16 43  1  0  0  0
 17 18  1  0  0  0
 17 44  1  0  0  0
 17 45  1  0  0  0
 18 19  1  0  0  0
 18 46  1  0  0  0
 18 47  1  0  0  0
 19 20  1  0  0  0
 19 48  1  0  0  0
 19 49  1  0  0  0
 20 50  1  0  0  0
 20 51  1  0  0  0
 21 22  1  0  0  0
 21 52  1  0  0  0
 22 23  1  0  0  0
 22 53  1  0  0  0
 22 54  1  0  0  0
 23 24  1  0  0  0
 23 55  1  0  0  0
 23 56  1  0  0  0
 24 25  1  0  0  0
 24 57  1  0  0  0
 25 26  2  0  0  0
 25 28  1  0  0  0
 26 27  1  0  0  0
 26 58  1  0  0  0
 27 30  2  0  0  0
 27 59  1  0  0  0
 28 29  2  0  0  0
 28 60  1  0  0  0
 29 30  1  0  0  0
 29 61  1  0  0  0
 30 31  1  0  0  0
 31 32  1  0  0  0
 32 62  1  0  0  0
 32 63  1  0  0  0
 32 64  1  0  0  0
M  END
> <chembl_id>
CHEMBL204785

> <chembl_pref_name>
None

> <i_m_ct_stereo_status>
1

> <s_m_source_file>
sdf/inactives_sanitized.sdf

> <i_m_source_file_index>
194

> <i_lp_mmshare_version>
49012

> <i_f3d_flags>
0

> <s_epik_input>
W2NIXTFbY0hdW2NIXVtjSF1jKGMxMiluYyhvMilbTkhdW0NAQEhdKFtDSDJdW0NIXTNbQ0gyXVtDSDJdW0NIMl1bQ0gyXVtDSDJdMylDKD1PKVtOSF1bQ0gyXVtDSDJdW05IXWM0W2NIXVtjSF1jKFtjSF1bY0hdNClPW0NIM10=

> <s_epik_cmdline>
J2VwaWtfcHl0aG9uJywgJy1waHQnLCAnMC41JywgJy1waCcsICc3LjUnLCAnLW50JywgJy1tYScsICcyMDAnLCAnLWltYWUnLCAnPGluZmlsZS5tYWU+JywgJy1vbWFlJywgJzxvdXRmaWxlLm1hZT4n

> <r_lp_tautomer_probability>
1

> <r_epik_Ionization_Penalty>
  0.0023

> <r_epik_Ionization_Penalty_Charging>
  0.0000

> <r_epik_Ionization_Penalty_Neutral>
  0.0023

> <r_epik_State_Penalty>
 -0.0000

> <r_epik_Charging_Adjusted_Penalty>
0

> <i_epik_Tot_Q>
0

> <i_epik_Tot_abs_Q>
0

> <s_lp_Force_Field>
OPLS3e

> <r_lp_Energy>
42.241753

> <b_lp_Chiralities_Consistent>
1

> <s_lp_Variant>
sdf/inactives_sanitized.sdf:194-1

$$$$
sdf/inactives_sanitized.sdf:195
                    3D
 Schrodinger Suite 2020-1.
 40 41  0  0  1  0            999 V2000
   -2.9063    0.0125    0.2278 C   0  0  0  0  0  0
   -2.2059    1.1579    0.5914 C   0  0  0  0  0  0
   -0.8147    1.1321    0.6448 C   0  0  0  0  0  0
   -0.1014   -0.0334    0.3339 C   0  0  0  0  0  0
   -0.8101   -1.1976   -0.0247 C   0  0  0  0  0  0
   -2.2152   -1.1577   -0.0767 C   0  0  0  0  0  0
    1.3888   -0.0099    0.3919 C   0  0  0  0  0  0
    2.1765   -0.3727   -0.7132 C   0  0  0  0  0  0
    3.5711   -0.3555   -0.6309 C   0  0  0  0  0  0
    4.2034    0.0324    0.5571 C   0  0  0  0  0  0
    3.4241    0.3982    1.6569 C   0  0  0  0  0  0
    2.0332    0.3789    1.5726 C   0  0  0  0  0  0
    1.5928   -0.7263   -1.8837 F   0  0  0  0  0  0
    4.3050   -0.7098   -1.7128 F   0  0  0  0  0  0
   -0.0759   -2.3398   -0.2889 O   0  0  0  0  0  0
   -0.7465   -3.5236   -0.7118 C   0  0  0  0  0  0
    0.2635   -4.6235   -1.0431 C   0  0  0  0  0  0
    1.4782   -4.4479   -0.9485 O   0  0  0  0  0  0
    5.7255    0.0644    0.6685 C   0  0  0  0  0  0
    6.3519    1.4559    0.4055 C   0  0  0  0  0  0
    6.0739    1.9842   -1.0159 C   0  0  0  0  0  0
    7.8642    1.4413    0.6936 C   0  0  0  0  0  0
   -3.9854    0.0299    0.1853 H   0  0  0  0  0  0
   -2.7397    2.0660    0.8298 H   0  0  0  0  0  0
   -0.2858    2.0326    0.9223 H   0  0  0  0  0  0
   -2.7910   -2.0301   -0.3453 H   0  0  0  0  0  0
    3.8953    0.7012    2.5808 H   0  0  0  0  0  0
    1.4524    0.6620    2.4386 H   0  0  0  0  0  0
   -1.4066   -3.8846    0.0775 H   0  0  0  0  0  0
   -1.3420   -3.3248   -1.6036 H   0  0  0  0  0  0
   -0.1748   -5.5674   -1.3675 H   0  0  0  0  0  0
    5.9914   -0.2661    1.6743 H   0  0  0  0  0  0
    6.1611   -0.6843    0.0046 H   0  0  0  0  0  0
    5.9029    2.1598    1.1085 H   0  0  0  0  0  0
    6.4629    1.3064   -1.7766 H   0  0  0  0  0  0
    6.5370    2.9590   -1.1731 H   0  0  0  0  0  0
    5.0058    2.1078   -1.1957 H   0  0  0  0  0  0
    8.3897    0.7510    0.0325 H   0  0  0  0  0  0
    8.0689    1.1371    1.7206 H   0  0  0  0  0  0
    8.3036    2.4300    0.5563 H   0  0  0  0  0  0
  1  6  2  0  0  0
  1  2  1  0  0  0
  1 23  1  0  0  0
  2  3  2  0  0  0
  2 24  1  0  0  0
  3  4  1  0  0  0
  3 25  1  0  0  0
  4  5  2  0  0  0
  4  7  1  0  0  0
  5  6  1  0  0  0
  5 15  1  0  0  0
  6 26  1  0  0  0
  7  8  2  0  0  0
  7 12  1  0  0  0
  8  9  1  0  0  0
  8 13  1  0  0  0
  9 10  2  0  0  0
  9 14  1  0  0  0
 10 11  1  0  0  0
 10 19  1  0  0  0
 11 12  2  0  0  0
 11 27  1  0  0  0
 12 28  1  0  0  0
 15 16  1  0  0  0
 16 17  1  0  0  0
 16 29  1  0  0  0
 16 30  1  0  0  0
 17 18  2  0  0  0
 17 31  1  0  0  0
 19 20  1  0  0  0
 19 32  1  0  0  0
 19 33  1  0  0  0
 20 21  1  0  0  0
 20 22  1  0  0  0
 20 34  1  0  0  0
 21 35  1  0  0  0
 21 36  1  0  0  0
 21 37  1  0  0  0
 22 38  1  0  0  0
 22 39  1  0  0  0
 22 40  1  0  0  0
M  END
> <chembl_id>
CHEMBL390945

> <chembl_pref_name>
None

> <s_m_source_file>
sdf/inactives_sanitized.sdf

> <i_m_source_file_index>
195

> <i_lp_mmshare_version>
49012

> <i_m_ct_stereo_status>
1

> <i_f3d_flags>
0

> <s_epik_input>
Tz1bQ0hdW0NIMl1PYzFbY0hdW2NIXVtjSF1bY0hdYzEtYzJjKEYpYyhGKWMoW2NIXVtjSF0yKVtDSDJdW0NIXShbQ0gzXSlbQ0gzXQ==

> <s_epik_cmdline>
J2VwaWtfcHl0aG9uJywgJy1waHQnLCAnMC41JywgJy1waCcsICc3LjUnLCAnLW50JywgJy1tYScsICcyMDAnLCAnLWltYWUnLCAnPGluZmlsZS5tYWU+JywgJy1vbWFlJywgJzxvdXRmaWxlLm1hZT4n

> <r_lp_tautomer_probability>
0.99990000499975

> <r_epik_Ionization_Penalty>
  0.0139

> <r_epik_Ionization_Penalty_Charging>
  0.0000

> <r_epik_Ionization_Penalty_Neutral>
  0.0139

> <r_epik_State_Penalty>
  0.0109

> <r_epik_Charging_Adjusted_Penalty>
0.0108588939277934

> <i_epik_Tot_Q>
0

> <i_epik_Tot_abs_Q>
0

> <s_lp_Force_Field>
OPLS3e

> <r_lp_Energy>
33.435116

> <b_lp_Chiralities_Consistent>
1

> <s_lp_Variant>
sdf/inactives_sanitized.sdf:195-1

$$$$
sdf/inactives_sanitized.sdf:196
                    3D
 Schrodinger Suite 2020-1.
 79 80  0  0  1  0            999 V2000
    1.7969   -0.6500    1.2902 C   0  0  0  0  0  0
    2.6018    0.1866    2.0924 C   0  0  0  0  0  0
    2.5897    0.0458    3.4739 C   0  0  0  0  0  0
    1.7637   -0.8962    4.0746 C   0  0  0  0  0  0
    0.9360   -1.6998    3.3008 C   0  0  0  0  0  0
    0.9363   -1.5768    1.9179 C   0  0  0  0  0  0
   -5.7016    4.8249    6.1380 C   0  0  0  0  0  0
   -6.4961    4.2746    7.1418 C   0  0  0  0  0  0
   -6.3657    2.9332    7.4963 C   0  0  0  0  0  0
   -5.4334    2.1338    6.8398 C   0  0  0  0  0  0
   -4.6363    2.6792    5.8303 C   0  0  0  0  0  0
   -4.7688    4.0263    5.4814 C   0  0  0  0  0  0
   -3.6158    1.8074    5.1192 C   0  0  0  0  0  0
   -3.9253    1.7333    3.7319 O   0  0  0  0  0  0
   -3.1761    0.9863    2.8991 C   0  0  0  0  0  0
   -3.6784    1.1122    1.6078 N   0  0  0  0  0  0
   -2.2040    0.3077    3.2426 O   0  0  0  0  0  0
   -3.0213    0.4459    0.4705 C   0  0  2  0  0  0
   -1.6919    1.1284    0.0727 C   0  0  0  0  0  0
   -3.9920    0.4193   -0.7412 C   0  0  0  0  0  0
   -5.2820   -0.4117   -0.5356 C   0  0  0  0  0  0
   -4.9841   -1.9035   -0.2701 C   0  0  0  0  0  0
   -6.2620   -0.2120   -1.7122 C   0  0  0  0  0  0
   -1.6194    2.3568    0.0081 O   0  0  0  0  0  0
   -0.6723    0.2966   -0.2016 N   0  0  0  0  0  0
    0.6850    0.6859   -0.6139 C   0  0  2  0  0  0
    0.6990    0.9712   -2.1168 C   0  0  0  0  0  0
    1.7053   -0.4096   -0.2086 C   0  0  0  0  0  0
    0.2046   -0.1789   -3.1037 C   0  0  0  0  0  0
    1.1244    2.0373   -2.5689 O   0  0  0  0  0  0
   -0.2843   -1.2313   -2.6885 O   0  0  0  0  0  0
    0.3978    0.1383   -4.3982 N   0  0  0  0  0  0
    0.0451   -0.7050   -5.5419 C   0  0  0  0  0  0
    1.1612   -1.6806   -5.9709 C   0  0  0  0  0  0
    1.4955   -2.7604   -4.9221 C   0  0  0  0  0  0
    2.4340   -3.8434   -5.5015 N   0  3  0  0  0  0
    3.8304   -3.3099   -5.8829 C   0  0  0  0  0  0
    2.5553   -5.0420   -4.5397 C   0  0  0  0  0  0
    3.2266    0.9404    1.6359 H   0  0  0  0  0  0
    3.2151    0.6802    4.0845 H   0  0  0  0  0  0
    1.7536   -0.9940    5.1503 H   0  0  0  0  0  0
    0.2803   -2.4141    3.7767 H   0  0  0  0  0  0
    0.2697   -2.1878    1.3268 H   0  0  0  0  0  0
   -5.8084    5.8658    5.8705 H   0  0  0  0  0  0
   -7.2198    4.8940    7.6509 H   0  0  0  0  0  0
   -6.9848    2.5152    8.2764 H   0  0  0  0  0  0
   -5.3334    1.0940    7.1164 H   0  0  0  0  0  0
   -4.1514    4.4524    4.7037 H   0  0  0  0  0  0
   -2.6208    2.2312    5.2651 H   0  0  0  0  0  0
   -3.6096    0.8071    5.5563 H   0  0  0  0  0  0
   -4.4207    1.7713    1.4241 H   0  0  0  0  0  0
   -2.8078   -0.5893    0.7488 H   0  0  0  0  0  0
   -4.2640    1.4451   -0.9995 H   0  0  0  0  0  0
   -3.4758    0.0272   -1.6203 H   0  0  0  0  0  0
   -5.7872   -0.0223    0.3492 H   0  0  0  0  0  0
   -3.9676   -2.1746   -0.5565 H   0  0  0  0  0  0
   -5.6557   -2.5712   -0.8098 H   0  0  0  0  0  0
   -5.0953   -2.1331    0.7900 H   0  0  0  0  0  0
   -6.4254   -1.1246   -2.2856 H   0  0  0  0  0  0
   -5.9075    0.5401   -2.4177 H   0  0  0  0  0  0
   -7.2354    0.1219   -1.3518 H   0  0  0  0  0  0
   -0.8315   -0.6984   -0.1356 H   0  0  0  0  0  0
    0.9551    1.5955   -0.0710 H   0  0  0  0  0  0
    1.4643   -1.3630   -0.6812 H   0  0  0  0  0  0
    2.7006   -0.1397   -0.5665 H   0  0  0  0  0  0
    0.8034    1.0384   -4.6131 H   0  0  0  0  0  0
   -0.8600   -1.2690   -5.3048 H   0  0  0  0  0  0
   -0.2170   -0.0562   -6.3783 H   0  0  0  0  0  0
    0.8584   -2.1696   -6.8976 H   0  0  0  0  0  0
    2.0522   -1.1015   -6.2135 H   0  0  0  0  0  0
    1.9923   -2.3638   -4.0351 H   0  0  0  0  0  0
    0.5922   -3.2953   -4.6243 H   0  0  0  0  0  0
    4.2773   -2.8739   -4.9881 H   0  0  0  0  0  0
    3.7034   -2.5709   -6.6733 H   0  0  0  0  0  0
    4.4131   -4.1561   -6.2493 H   0  0  0  0  0  0
    3.0191   -4.6859   -3.6181 H   0  0  0  0  0  0
    3.1696   -5.7956   -5.0344 H   0  0  0  0  0  0
    1.5483   -5.4224   -4.3621 H   0  0  0  0  0  0
    2.0018   -4.1903   -6.3468 H   0  0  0  0  0  0
  1 28  1  0  0  0
  1  6  2  0  0  0
  1  2  1  0  0  0
  2  3  2  0  0  0
  2 39  1  0  0  0
  3  4  1  0  0  0
  3 40  1  0  0  0
  4  5  2  0  0  0
  4 41  1  0  0  0
  5  6  1  0  0  0
  5 42  1  0  0  0
  6 43  1  0  0  0
  7 12  2  0  0  0
  7  8  1  0  0  0
  7 44  1  0  0  0
  8  9  2  0  0  0
  8 45  1  0  0  0
  9 10  1  0  0  0
  9 46  1  0  0  0
 10 11  2  0  0  0
 10 47  1  0  0  0
 11 12  1  0  0  0
 11 13  1  0  0  0
 12 48  1  0  0  0
 13 14  1  0  0  0
 13 49  1  0  0  0
 13 50  1  0  0  0
 14 15  1  0  0  0
 15 16  1  0  0  0
 15 17  2  0  0  0
 16 18  1  0  0  0
 16 51  1  0  0  0
 18 19  1  0  0  0
 18 20  1  0  0  0
 18 52  1  0  0  0
 19 24  2  0  0  0
 19 25  1  0  0  0
 20 21  1  0  0  0
 20 53  1  0  0  0
 20 54  1  0  0  0
 21 22  1  0  0  0
 21 23  1  0  0  0
 21 55  1  0  0  0
 22 56  1  0  0  0
 22 57  1  0  0  0
 22 58  1  0  0  0
 23 59  1  0  0  0
 23 60  1  0  0  0
 23 61  1  0  0  0
 25 26  1  0  0  0
 25 62  1  0  0  0
 26 27  1  0  0  0
 26 28  1  0  0  0
 26 63  1  0  0  0
 27 29  1  0  0  0
 27 30  2  0  0  0
 28 64  1  0  0  0
 28 65  1  0  0  0
 29 31  2  0  0  0
 29 32  1  0  0  0
 32 33  1  0  0  0
 32 66  1  0  0  0
 33 34  1  0  0  0
 33 67  1  0  0  0
 33 68  1  0  0  0
 34 35  1  0  0  0
 34 69  1  0  0  0
 34 70  1  0  0  0
 35 36  1  0  0  0
 35 71  1  0  0  0
 35 72  1  0  0  0
 36 37  1  0  0  0
 36 38  1  0  0  0
 36 79  1  0  0  0
 37 73  1  0  0  0
 37 74  1  0  0  0
 37 75  1  0  0  0
 38 76  1  0  0  0
 38 77  1  0  0  0
 38 78  1  0  0  0
M  CHG  1  36   1
M  END
> <chembl_id>
CHEMBL1242932

> <chembl_pref_name>
None

> <i_m_ct_stereo_status>
1

> <s_m_source_file>
sdf/inactives_sanitized.sdf

> <i_m_source_file_index>
196

> <i_lp_mmshare_version>
49012

> <i_f3d_flags>
0

> <s_epik_input>
W0NIM11OKFtDSDNdKVtDSDJdW0NIMl1bQ0gyXVtOSF1DKD1PKUMoPU8pW0NASF0oW0NIMl1jMVtjSF1bY0hdW2NIXVtjSF1bY0hdMSlbTkhdQyg9TylbQ0BIXShbQ0gyXVtDSF0oW0NIM10pW0NIM10pW05IXUMoPU8pT1tDSDJdYzJbY0hdW2NIXVtjSF1bY0hdW2NIXTI=

> <s_epik_cmdline>
J2VwaWtfcHl0aG9uJywgJy1waHQnLCAnMC41JywgJy1waCcsICc3LjUnLCAnLW50JywgJy1tYScsICcyMDAnLCAnLWltYWUnLCAnPGluZmlsZS5tYWU+JywgJy1vbWFlJywgJzxvdXRmaWxlLm1hZT4n

> <r_lp_tautomer_probability>
1

> <r_epik_Ionization_Penalty>
  0.0030

> <r_epik_Ionization_Penalty_Charging>
  0.0030

> <r_epik_Ionization_Penalty_Neutral>
  0.0000

> <r_epik_State_Penalty>
 -0.0000

> <r_epik_Charging_Adjusted_Penalty>
0.00300458624090232

> <i_epik_Tot_Q>
1

> <i_epik_Tot_abs_Q>
1

> <s_epik_Chemistry_Notes>
This compound has an ester and may undergo hydrolysis at high or low pH.

> <s_lp_Force_Field>
OPLS3e

> <r_lp_Energy>
47.38558

> <b_lp_Chiralities_Consistent>
1

> <s_lp_Variant>
sdf/inactives_sanitized.sdf:196-1

$$$$
sdf/inactives_sanitized.sdf:197
                    3D
 Schrodinger Suite 2020-1.
 49 50  0  0  1  0            999 V2000
   -1.0802   -0.6672    0.9275 C   0  0  0  0  0  0
   -1.4129   -1.9235    0.5815 N   0  0  0  0  0  0
   -1.6795    1.9933   -0.7660 C   0  0  0  0  0  0
   -2.1855   -2.8461    1.4175 C   0  0  2  0  0  0
   -0.1969    0.0991   -0.0885 C   0  0  1  0  0  0
   -0.5220    1.5351   -0.1453 N   0  0  0  0  0  0
   -1.2544   -3.7295    2.2407 C   0  0  0  0  0  0
   -3.0801   -4.9954    1.4619 O   0  0  0  0  0  0
   -1.4012   -0.1383    1.9933 O   0  0  0  0  0  0
   -2.5151    1.3041   -1.3572 O   0  0  0  0  0  0
   -0.1983   -3.4128    2.7880 O   0  0  0  0  0  0
   -1.7471    3.3308   -0.6222 O   0  0  0  0  0  0
    1.3150   -0.0239    0.2538 C   0  0  0  0  0  0
   -1.8631   -5.1235    2.1845 C   0  0  0  0  0  0
   -2.9658   -3.8764    0.5990 C   0  0  0  0  0  0
   -2.8230    4.0728   -1.1879 C   0  0  0  0  0  0
   -2.6585    5.5576   -0.8979 C   0  0  0  0  0  0
    1.9240   -1.4467    0.1705 C   0  0  0  0  0  0
   -3.7582    6.2974   -0.4557 C   0  0  0  0  0  0
   -1.4239    6.1868   -1.0901 C   0  0  0  0  0  0
    3.3920   -1.4477    0.6480 C   0  0  0  0  0  0
    1.7659   -2.0819   -1.2275 C   0  0  0  0  0  0
   -1.2886    7.5480   -0.8298 C   0  0  0  0  0  0
   -3.6226    7.6588   -0.1963 C   0  0  0  0  0  0
   -2.3883    8.2777   -0.3832 C   0  0  0  0  0  0
   -1.1049   -2.2773   -0.3127 H   0  0  0  0  0  0
   -2.8684   -2.3441    2.1067 H   0  0  0  0  0  0
   -0.3498   -0.3075   -1.0910 H   0  0  0  0  0  0
    0.0409    2.1802    0.3897 H   0  0  0  0  0  0
    1.8867    0.6169   -0.4207 H   0  0  0  0  0  0
    1.4874    0.3746    1.2559 H   0  0  0  0  0  0
   -1.1884   -5.7994    1.6584 H   0  0  0  0  0  0
   -2.0462   -5.5239    3.1817 H   0  0  0  0  0  0
   -2.4759   -4.1754   -0.3308 H   0  0  0  0  0  0
   -3.9572   -3.5202    0.3177 H   0  0  0  0  0  0
   -2.8598    3.9254   -2.2685 H   0  0  0  0  0  0
   -3.7676    3.7171   -0.7723 H   0  0  0  0  0  0
    1.3842   -2.0798    0.8745 H   0  0  0  0  0  0
   -4.7171    5.8208   -0.3115 H   0  0  0  0  0  0
   -0.5705    5.6240   -1.4398 H   0  0  0  0  0  0
    4.0951   -1.6778   -0.1524 H   0  0  0  0  0  0
    3.5420   -2.1882    1.4343 H   0  0  0  0  0  0
    3.6900   -0.4824    1.0579 H   0  0  0  0  0  0
    2.6576   -2.6208   -1.5479 H   0  0  0  0  0  0
    1.5515   -1.3360   -1.9929 H   0  0  0  0  0  0
    0.9456   -2.8001   -1.2312 H   0  0  0  0  0  0
   -0.3360    8.0360   -0.9747 H   0  0  0  0  0  0
   -4.4705    8.2327    0.1477 H   0  0  0  0  0  0
   -2.2832    9.3337   -0.1819 H   0  0  0  0  0  0
  1  2  1  0  0  0
  1  5  1  0  0  0
  1  9  2  0  0  0
  2  4  1  0  0  0
  2 26  1  0  0  0
  3  6  1  0  0  0
  3 10  2  0  0  0
  3 12  1  0  0  0
  4  7  1  0  0  0
  4 15  1  0  0  0
  4 27  1  0  0  0
  5  6  1  0  0  0
  5 13  1  0  0  0
  5 28  1  0  0  0
  6 29  1  0  0  0
  7 11  2  0  0  0
  7 14  1  0  0  0
  8 15  1  0  0  0
  8 14  1  0  0  0
 12 16  1  0  0  0
 13 18  1  0  0  0
 13 30  1  0  0  0
 13 31  1  0  0  0
 14 32  1  0  0  0
 14 33  1  0  0  0
 15 34  1  0  0  0
 15 35  1  0  0  0
 16 17  1  0  0  0
 16 36  1  0  0  0
 16 37  1  0  0  0
 17 19  2  0  0  0
 17 20  1  0  0  0
 18 21  1  0  0  0
 18 22  1  0  0  0
 18 38  1  0  0  0
 19 24  1  0  0  0
 19 39  1  0  0  0
 20 23  2  0  0  0
 20 40  1  0  0  0
 21 41  1  0  0  0
 21 42  1  0  0  0
 21 43  1  0  0  0
 22 44  1  0  0  0
 22 45  1  0  0  0
 22 46  1  0  0  0
 23 25  1  0  0  0
 23 47  1  0  0  0
 24 25  2  0  0  0
 24 48  1  0  0  0
 25 49  1  0  0  0
M  END
> <chembl_id>
CHEMBL61805

> <chembl_pref_name>
None

> <i_m_ct_stereo_status>
1

> <s_m_source_file>
sdf/inactives_sanitized.sdf

> <i_m_source_file_index>
197

> <i_lp_mmshare_version>
49012

> <i_f3d_flags>
0

> <s_epik_input>
W0NIMl0xT1tDSDJdQyg9TylbQ0BIXTFbTkhdQyg9TylbQ0BIXShbQ0gyXVtDSF0oW0NIM10pW0NIM10pW05IXUMoPU8pT1tDSDJdYzJbY0hdW2NIXVtjSF1bY0hdW2NIXTI=

> <s_epik_cmdline>
J2VwaWtfcHl0aG9uJywgJy1waHQnLCAnMC41JywgJy1waCcsICc3LjUnLCAnLW50JywgJy1tYScsICcyMDAnLCAnLWltYWUnLCAnPGluZmlsZS5tYWU+JywgJy1vbWFlJywgJzxvdXRmaWxlLm1hZT4n

> <r_lp_tautomer_probability>
1

> <r_epik_Ionization_Penalty>
  0.0000

> <r_epik_Ionization_Penalty_Charging>
  0.0000

> <r_epik_Ionization_Penalty_Neutral>
  0.0000

> <r_epik_State_Penalty>
 -0.0000

> <r_epik_Charging_Adjusted_Penalty>
0

> <i_epik_Tot_Q>
0

> <i_epik_Tot_abs_Q>
0

> <s_epik_Chemistry_Notes>
This compound has an ester and may undergo hydrolysis at high or low pH.

> <s_lp_Force_Field>
OPLS3e

> <r_lp_Energy>
19.937025

> <b_lp_Chiralities_Consistent>
1

> <s_lp_Variant>
sdf/inactives_sanitized.sdf:197-1

$$$$
sdf/inactives_sanitized.sdf:198
                    3D
 Schrodinger Suite 2020-1.
 51 52  0  0  1  0            999 V2000
   -1.2030   -0.5500    0.8912 C   0  0  0  0  0  0
   -1.4788   -1.8388    0.6226 N   0  0  0  0  0  0
   -1.8293    2.1174   -0.8098 C   0  0  0  0  0  0
   -0.3670    0.1955   -0.1770 C   0  0  1  0  0  0
   -0.6575    1.6392   -0.2341 N   0  0  0  0  0  0
   -2.2168   -2.7408    1.5117 C   0  0  2  0  0  0
   -1.2433   -3.5495    2.3914 C   0  0  0  0  0  0
   -1.5406    0.0241    1.9286 O   0  0  0  0  0  0
   -2.7053    1.4411   -1.3557 O   0  0  0  0  0  0
   -1.8599    3.4574   -0.6804 O   0  0  0  0  0  0
    1.1495   -0.0074    0.0925 C   0  0  0  0  0  0
   -0.1695   -3.1630    2.8526 O   0  0  0  0  0  0
   -2.9473    4.2159   -1.2007 C   0  0  0  0  0  0
   -2.7314    5.7004   -0.9463 C   0  0  0  0  0  0
   -1.8146   -4.9641    2.5430 C   0  0  0  0  0  0
   -2.9877   -3.8175    0.7454 C   0  0  0  0  0  0
   -3.1163   -4.9652    1.7366 C   0  0  0  0  0  0
    2.0956    0.5318   -1.0083 C   0  0  0  0  0  0
   -3.7818    6.4714   -0.4417 C   0  0  0  0  0  0
   -1.4993    6.2982   -1.2322 C   0  0  0  0  0  0
    1.8546   -0.1432   -2.3758 C   0  0  0  0  0  0
    3.5714    0.4379   -0.5642 C   0  0  0  0  0  0
   -3.5989    7.8331   -0.2140 C   0  0  0  0  0  0
   -1.3170    7.6598   -1.0042 C   0  0  0  0  0  0
   -2.3673    8.4207   -0.4952 C   0  0  0  0  0  0
   -1.1582   -2.2320   -0.2505 H   0  0  0  0  0  0
   -0.5970   -0.2452   -1.1501 H   0  0  0  0  0  0
   -0.0523    2.2761    0.2629 H   0  0  0  0  0  0
   -2.9094   -2.2106    2.1702 H   0  0  0  0  0  0
    1.4054    0.4619    1.0450 H   0  0  0  0  0  0
    1.3630   -1.0699    0.2280 H   0  0  0  0  0  0
   -3.0475    4.0515   -2.2748 H   0  0  0  0  0  0
   -3.8758    3.8897   -0.7281 H   0  0  0  0  0  0
   -1.1033   -5.6843    2.1375 H   0  0  0  0  0  0
   -1.9826   -5.2141    3.5907 H   0  0  0  0  0  0
   -3.9667   -3.4621    0.4208 H   0  0  0  0  0  0
   -2.4464   -4.1407   -0.1470 H   0  0  0  0  0  0
   -3.9683   -4.8063    2.4003 H   0  0  0  0  0  0
   -3.2756   -5.9171    1.2281 H   0  0  0  0  0  0
    1.8846    1.5946   -1.1328 H   0  0  0  0  0  0
   -4.7387    6.0191   -0.2244 H   0  0  0  0  0  0
   -0.6843    5.7106   -1.6298 H   0  0  0  0  0  0
    2.7810   -0.3784   -2.8996 H   0  0  0  0  0  0
    1.2794    0.5124   -3.0302 H   0  0  0  0  0  0
    1.2983   -1.0758   -2.2779 H   0  0  0  0  0  0
    4.1495   -0.2625   -1.1674 H   0  0  0  0  0  0
    3.6673    0.1107    0.4716 H   0  0  0  0  0  0
    4.0601    1.4096   -0.6390 H   0  0  0  0  0  0
   -4.4084    8.4309    0.1780 H   0  0  0  0  0  0
   -0.3664    8.1238   -1.2220 H   0  0  0  0  0  0
   -2.2261    9.4768   -0.3180 H   0  0  0  0  0  0
  1  2  1  0  0  0
  1  4  1  0  0  0
  1  8  2  0  0  0
  2  6  1  0  0  0
  2 26  1  0  0  0
  3  5  1  0  0  0
  3  9  2  0  0  0
  3 10  1  0  0  0
  4  5  1  0  0  0
  4 11  1  0  0  0
  4 27  1  0  0  0
  5 28  1  0  0  0
  6  7  1  0  0  0
  6 16  1  0  0  0
  6 29  1  0  0  0
  7 12  2  0  0  0
  7 15  1  0  0  0
 10 13  1  0  0  0
 11 18  1  0  0  0
 11 30  1  0  0  0
 11 31  1  0  0  0
 13 14  1  0  0  0
 13 32  1  0  0  0
 13 33  1  0  0  0
 14 19  2  0  0  0
 14 20  1  0  0  0
 15 17  1  0  0  0
 15 34  1  0  0  0
 15 35  1  0  0  0
 16 17  1  0  0  0
 16 36  1  0  0  0
 16 37  1  0  0  0
 17 38  1  0  0  0
 17 39  1  0  0  0
 18 21  1  0  0  0
 18 22  1  0  0  0
 18 40  1  0  0  0
 19 23  1  0  0  0
 19 41  1  0  0  0
 20 24  2  0  0  0
 20 42  1  0  0  0
 21 43  1  0  0  0
 21 44  1  0  0  0
 21 45  1  0  0  0
 22 46  1  0  0  0
 22 47  1  0  0  0
 22 48  1  0  0  0
 23 25  2  0  0  0
 23 49  1  0  0  0
 24 25  1  0  0  0
 24 50  1  0  0  0
 25 51  1  0  0  0
M  END
> <chembl_id>
CHEMBL162389

> <chembl_pref_name>
None

> <i_m_ct_stereo_status>
1

> <s_m_source_file>
sdf/inactives_sanitized.sdf

> <i_m_source_file_index>
198

> <i_lp_mmshare_version>
49012

> <i_f3d_flags>
0

> <s_epik_input>
W0NIMl0xW0NIMl1bQ0gyXUMoPU8pW0NASF0xW05IXUMoPU8pW0NASF0oW0NIMl1bQ0hdKFtDSDNdKVtDSDNdKVtOSF1DKD1PKU9bQ0gyXWMyW2NIXVtjSF1bY0hdW2NIXVtjSF0y

> <s_epik_cmdline>
J2VwaWtfcHl0aG9uJywgJy1waHQnLCAnMC41JywgJy1waCcsICc3LjUnLCAnLW50JywgJy1tYScsICcyMDAnLCAnLWltYWUnLCAnPGluZmlsZS5tYWU+JywgJy1vbWFlJywgJzxvdXRmaWxlLm1hZT4n

> <r_lp_tautomer_probability>
1

> <r_epik_Ionization_Penalty>
  0.0000

> <r_epik_Ionization_Penalty_Charging>
  0.0000

> <r_epik_Ionization_Penalty_Neutral>
  0.0000

> <r_epik_State_Penalty>
 -0.0000

> <r_epik_Charging_Adjusted_Penalty>
0

> <i_epik_Tot_Q>
0

> <i_epik_Tot_abs_Q>
0

> <s_epik_Chemistry_Notes>
This compound has an ester and may undergo hydrolysis at high or low pH.

> <s_lp_Force_Field>
OPLS3e

> <r_lp_Energy>
18.228901

> <b_lp_Chiralities_Consistent>
1

> <s_lp_Variant>
sdf/inactives_sanitized.sdf:198-1

$$$$
sdf/inactives_sanitized.sdf:199
                    3D
 Schrodinger Suite 2020-1.
 65 67  0  0  1  0            999 V2000
   -4.1400    3.0063   -0.6083 N   0  0  0  0  0  0
   -3.6156    2.6633   -1.8257 C   0  0  0  0  0  0
   -2.1192    2.2902   -1.7706 C   0  0  0  0  0  0
   -2.1990    2.0656    0.7578 C   0  0  0  0  0  0
   -1.8127    1.3724   -0.5660 C   0  0  2  0  0  0
   -0.0110   -0.3102   -0.1033 C   0  0  0  0  0  0
   -0.4233    0.8965   -0.5348 N   0  0  0  0  0  0
    2.4679    0.0711    2.0441 C   0  0  0  0  0  0
   -3.3361    3.1001    0.6384 C   0  0  0  0  0  0
    1.5074   -0.5722   -0.1655 C   0  0  1  0  0  0
    2.0551   -0.9149    1.1563 N   0  0  0  0  0  0
   -5.5508    3.4141   -0.5170 C   0  0  0  0  0  0
   -4.2477    2.6463   -2.8830 O   0  0  0  0  0  0
   -1.6260    1.8654    1.8294 O   0  0  0  0  0  0
   -0.7652   -1.1957    0.3028 O   0  0  0  0  0  0
    1.8834   -1.6633   -1.1983 C   0  0  0  0  0  0
    2.4237    1.2902    1.8580 O   0  0  0  0  0  0
    2.9299   -0.5209    3.1613 O   0  0  0  0  0  0
    3.4163    0.2543    4.2495 C   0  0  0  0  0  0
    3.3737   -1.8163   -1.4596 C   0  0  0  0  0  0
    3.8914   -0.6705    5.3545 C   0  0  0  0  0  0
   -6.5024    2.3160    0.0169 C   0  0  0  0  0  0
    4.0220   -0.9601   -2.3748 C   0  0  0  0  0  0
    4.1525   -2.6896   -0.6702 C   0  0  0  0  0  0
    5.2568   -0.9142    5.5204 C   0  0  0  0  0  0
    2.9600   -1.2770    6.2008 C   0  0  0  0  0  0
   -6.4948    1.0320   -0.8362 C   0  0  0  0  0  0
   -7.9313    2.8683    0.1577 C   0  0  0  0  0  0
    5.3990   -1.0331   -2.5393 C   0  0  0  0  0  0
    5.5285   -2.7467   -0.8486 C   0  0  0  0  0  0
    5.6906   -1.7655    6.5336 C   0  0  0  0  0  0
    3.3946   -2.1285    7.2133 C   0  0  0  0  0  0
    6.1477   -1.9265   -1.7835 C   0  0  0  0  0  0
    4.7576   -2.3687    7.3750 C   0  0  0  0  0  0
   -1.8609    1.7832   -2.7018 H   0  0  0  0  0  0
   -1.5315    3.2092   -1.7388 H   0  0  0  0  0  0
   -2.4615    0.4951   -0.6400 H   0  0  0  0  0  0
    0.2757    1.5541   -0.8486 H   0  0  0  0  0  0
   -3.9685    3.1038    1.5269 H   0  0  0  0  0  0
   -2.8450    4.0735    0.6252 H   0  0  0  0  0  0
    1.9952    0.3380   -0.5274 H   0  0  0  0  0  0
    2.1035   -1.8856    1.4285 H   0  0  0  0  0  0
   -5.6033    4.2826    0.1412 H   0  0  0  0  0  0
   -5.9176    3.7744   -1.4801 H   0  0  0  0  0  0
    1.4935   -2.6314   -0.8778 H   0  0  0  0  0  0
    1.3986   -1.4530   -2.1536 H   0  0  0  0  0  0
    4.2363    0.8981    3.9260 H   0  0  0  0  0  0
    2.6321    0.9073    4.6365 H   0  0  0  0  0  0
   -6.1701    2.0484    1.0213 H   0  0  0  0  0  0
    3.4498   -0.2477   -2.9513 H   0  0  0  0  0  0
    3.6822   -3.3161    0.0736 H   0  0  0  0  0  0
    5.9799   -0.4486    4.8666 H   0  0  0  0  0  0
    1.9033   -1.0913    6.0729 H   0  0  0  0  0  0
   -6.7797    1.2378   -1.8687 H   0  0  0  0  0  0
   -7.1906    0.2908   -0.4417 H   0  0  0  0  0  0
   -5.5091    0.5661   -0.8498 H   0  0  0  0  0  0
   -8.3423    3.1624   -0.8089 H   0  0  0  0  0  0
   -7.9550    3.7436    0.8077 H   0  0  0  0  0  0
   -8.6026    2.1258    0.5907 H   0  0  0  0  0  0
    5.8907   -0.3865   -3.2510 H   0  0  0  0  0  0
    6.1205   -3.4251   -0.2520 H   0  0  0  0  0  0
    6.7451   -1.9573    6.6668 H   0  0  0  0  0  0
    2.6786   -2.6008    7.8697 H   0  0  0  0  0  0
    7.2188   -1.9742   -1.9142 H   0  0  0  0  0  0
    5.0944   -3.0291    8.1605 H   0  0  0  0  0  0
  1  2  1  0  0  0
  1  9  1  0  0  0
  1 12  1  0  0  0
  2  3  1  0  0  0
  2 13  2  0  0  0
  3  5  1  0  0  0
  3 35  1  0  0  0
  3 36  1  0  0  0
  4  9  1  0  0  0
  4  5  1  0  0  0
  4 14  2  0  0  0
  5  7  1  0  0  0
  5 37  1  0  0  0
  6  7  1  0  0  0
  6 10  1  0  0  0
  6 15  2  0  0  0
  7 38  1  0  0  0
  8 11  1  0  0  0
  8 17  2  0  0  0
  8 18  1  0  0  0
  9 39  1  0  0  0
  9 40  1  0  0  0
 10 11  1  0  0  0
 10 16  1  0  0  0
 10 41  1  0  0  0
 11 42  1  0  0  0
 12 22  1  0  0  0
 12 43  1  0  0  0
 12 44  1  0  0  0
 16 20  1  0  0  0
 16 45  1  0  0  0
 16 46  1  0  0  0
 18 19  1  0  0  0
 19 21  1  0  0  0
 19 47  1  0  0  0
 19 48  1  0  0  0
 20 23  2  0  0  0
 20 24  1  0  0  0
 21 25  2  0  0  0
 21 26  1  0  0  0
 22 27  1  0  0  0
 22 28  1  0  0  0
 22 49  1  0  0  0
 23 29  1  0  0  0
 23 50  1  0  0  0
 24 30  2  0  0  0
 24 51  1  0  0  0
 25 31  1  0  0  0
 25 52  1  0  0  0
 26 32  2  0  0  0
 26 53  1  0  0  0
 27 54  1  0  0  0
 27 55  1  0  0  0
 27 56  1  0  0  0
 28 57  1  0  0  0
 28 58  1  0  0  0
 28 59  1  0  0  0
 29 33  2  0  0  0
 29 60  1  0  0  0
 30 33  1  0  0  0
 30 61  1  0  0  0
 31 34  2  0  0  0
 31 62  1  0  0  0
 32 34  1  0  0  0
 32 63  1  0  0  0
 33 64  1  0  0  0
 34 65  1  0  0  0
M  END
> <chembl_id>
CHEMBL105708

> <chembl_pref_name>
None

> <i_m_ct_stereo_status>
1

> <s_m_source_file>
sdf/inactives_sanitized.sdf

> <i_m_source_file_index>
199

> <i_lp_mmshare_version>
49012

> <i_f3d_flags>
0

> <s_epik_input>
W0NIM11bQ0hdKFtDSDNdKVtDSDJdTjFDKD1PKVtDSDJdW0NASF0oQyg9TylbQ0gyXTEpW05IXUMoPU8pW0NASF0oW0NIMl1jMltjSF1bY0hdW2NIXVtjSF1bY0hdMilbTkhdQyg9TylPW0NIMl1jM1tjSF1bY0hdW2NIXVtjSF1bY0hdMw==

> <s_epik_cmdline>
J2VwaWtfcHl0aG9uJywgJy1waHQnLCAnMC41JywgJy1waCcsICc3LjUnLCAnLW50JywgJy1tYScsICcyMDAnLCAnLWltYWUnLCAnPGluZmlsZS5tYWU+JywgJy1vbWFlJywgJzxvdXRmaWxlLm1hZT4n

> <r_lp_tautomer_probability>
1

> <r_epik_Ionization_Penalty>
  0.0000

> <r_epik_Ionization_Penalty_Charging>
  0.0000

> <r_epik_Ionization_Penalty_Neutral>
  0.0000

> <r_epik_State_Penalty>
 -0.0000

> <r_epik_Charging_Adjusted_Penalty>
0

> <i_epik_Tot_Q>
0

> <i_epik_Tot_abs_Q>
0

> <s_epik_Chemistry_Notes>
This compound has an ester and may undergo hydrolysis at high or low pH.

> <s_lp_Force_Field>
OPLS3e

> <r_lp_Energy>
49.986797

> <b_lp_Chiralities_Consistent>
1

> <s_lp_Variant>
sdf/inactives_sanitized.sdf:199-1

$$$$
sdf/inactives_sanitized.sdf:200
                    3D
 Schrodinger Suite 2020-1.
 39 41  0  0  1  0            999 V2000
   -2.6130    0.1776    0.9878 N   0  0  0  0  0  0
   -2.1974   -0.9265    0.3009 C   0  0  0  0  0  0
   -0.9360   -1.0727   -0.2011 N   0  0  0  0  0  0
   -0.0879   -0.0234   -0.0163 C   0  0  0  0  0  0
   -0.4100    1.1172    0.6463 N   0  0  0  0  0  0
   -1.6813    1.1555    1.1201 C   0  0  0  0  0  0
   -3.0871   -1.9984    0.1676 N   0  0  0  0  0  0
   -2.8233   -3.1077   -0.7745 C   0  0  0  0  0  0
   -3.6602   -4.3774   -0.5174 C   0  0  0  0  0  0
   -5.0373   -4.0487   -0.4441 O   0  0  0  0  0  0
   -5.2978   -3.1614    0.6305 C   0  0  0  0  0  0
   -4.5340   -1.8375    0.4250 C   0  0  0  0  0  0
   -2.0799    2.3518    1.8424 C   0  0  0  0  0  0
   -2.3972    3.3047    2.4179 N   0  0  0  0  0  0
    1.2303   -0.0963   -0.4905 N   0  0  0  0  0  0
    1.8811   -1.0262   -1.3203 C   0  0  0  0  0  0
    3.2657   -1.1573   -1.1888 C   0  0  0  0  0  0
    3.9655   -2.0547   -1.9910 C   0  0  0  0  0  0
    3.2843   -2.8139   -2.9424 C   0  0  0  0  0  0
    1.9024   -2.6856   -3.0827 C   0  0  0  0  0  0
    1.2026   -1.7885   -2.2802 C   0  0  0  0  0  0
    3.9719   -3.7128   -3.7205 O   0  0  0  0  0  0
    4.4517   -3.2082   -4.9652 C   0  0  0  0  0  0
    5.0923   -4.2002   -5.5812 F   0  0  0  0  0  0
    3.4508   -2.8171   -5.7569 F   0  0  0  0  0  0
    5.3197   -2.2094   -4.7906 F   0  0  0  0  0  0
   -2.9769   -2.7511   -1.7939 H   0  0  0  0  0  0
   -1.7751   -3.4013   -0.7065 H   0  0  0  0  0  0
   -3.5156   -5.0885   -1.3311 H   0  0  0  0  0  0
   -3.3341   -4.8832    0.3938 H   0  0  0  0  0  0
   -6.3701   -2.9684    0.6700 H   0  0  0  0  0  0
   -5.0329   -3.6217    1.5846 H   0  0  0  0  0  0
   -4.6784   -1.2452    1.3292 H   0  0  0  0  0  0
   -4.9782   -1.2657   -0.3910 H   0  0  0  0  0  0
    1.7992    0.6966   -0.2313 H   0  0  0  0  0  0
    3.8058   -0.5711   -0.4588 H   0  0  0  0  0  0
    5.0346   -2.1590   -1.8766 H   0  0  0  0  0  0
    1.3744   -3.2755   -3.8177 H   0  0  0  0  0  0
    0.1378   -1.6896   -2.4262 H   0  0  0  0  0  0
  1  2  2  0  0  0
  1  6  1  0  0  0
  2  3  1  0  0  0
  2  7  1  0  0  0
  3  4  2  0  0  0
  4  5  1  0  0  0
  4 15  1  0  0  0
  5  6  2  0  0  0
  6 13  1  0  0  0
  7  8  1  0  0  0
  7 12  1  0  0  0
  8  9  1  0  0  0
  8 27  1  0  0  0
  8 28  1  0  0  0
  9 10  1  0  0  0
  9 29  1  0  0  0
  9 30  1  0  0  0
 10 11  1  0  0  0
 11 12  1  0  0  0
 11 31  1  0  0  0
 11 32  1  0  0  0
 12 33  1  0  0  0
 12 34  1  0  0  0
 13 14  3  0  0  0
 15 16  1  0  0  0
 15 35  1  0  0  0
 16 17  2  0  0  0
 16 21  1  0  0  0
 17 18  1  0  0  0
 17 36  1  0  0  0
 18 19  2  0  0  0
 18 37  1  0  0  0
 19 20  1  0  0  0
 19 22  1  0  0  0
 20 21  2  0  0  0
 20 38  1  0  0  0
 21 39  1  0  0  0
 22 23  1  0  0  0
 23 24  1  0  0  0
 23 25  1  0  0  0
 23 26  1  0  0  0
M  END
> <chembl_id>
CHEMBL4251253

> <chembl_pref_name>
None

> <s_m_source_file>
sdf/inactives_sanitized.sdf

> <i_m_source_file_index>
200

> <i_lp_mmshare_version>
49012

> <i_m_ct_stereo_status>
1

> <i_f3d_flags>
0

> <s_epik_input>
W0NIMl0xW0NIMl1PW0NIMl1bQ0gyXU4xYzJuYyhDI04pbmMobjIpW05IXWMzW2NIXVtjSF1jKFtjSF1bY0hdMylPQyhGKShGKUY=

> <s_epik_cmdline>
J2VwaWtfcHl0aG9uJywgJy1waHQnLCAnMC41JywgJy1waCcsICc3LjUnLCAnLW50JywgJy1tYScsICcyMDAnLCAnLWltYWUnLCAnPGluZmlsZS5tYWU+JywgJy1vbWFlJywgJzxvdXRmaWxlLm1hZT4n

> <r_lp_tautomer_probability>
1

> <r_epik_Ionization_Penalty>
  0.0001

> <r_epik_Ionization_Penalty_Charging>
  0.0000

> <r_epik_Ionization_Penalty_Neutral>
  0.0001

> <r_epik_State_Penalty>
 -0.0000

> <r_epik_Charging_Adjusted_Penalty>
0

> <i_epik_Tot_Q>
0

> <i_epik_Tot_abs_Q>
0

> <s_lp_Force_Field>
OPLS3e

> <r_lp_Energy>
25.487339

> <b_lp_Chiralities_Consistent>
1

> <s_lp_Variant>
sdf/inactives_sanitized.sdf:200-1

$$$$
sdf/inactives_sanitized.sdf:201
                    3D
 Schrodinger Suite 2020-1.
 52 53  0  0  1  0            999 V2000
    1.4721   -2.6942    1.0806 O   0  0  0  0  0  0
    2.0349   -1.8108    0.0541 S   0  0  0  0  0  0
    2.0258   -2.2263   -1.3528 O   0  0  0  0  0  0
   -0.3867   -0.2434   -0.0105 C   0  0  2  0  0  0
   -1.0455    1.1430    0.1534 C   0  0  0  0  0  0
   -1.7661    1.3323    1.2708 N   0  0  0  0  0  0
   -0.8670    2.0105   -0.7030 O   0  0  0  0  0  0
   -2.4015    2.5965    1.6268 C   0  0  0  0  0  0
   -1.4274    3.6632    1.9187 C   0  0  0  0  0  0
   -0.6621    4.5001    2.1485 N   0  0  0  0  0  0
    1.1439   -0.1462    0.1789 C   0  0  0  0  0  0
   -0.7390   -0.8676   -1.2900 N   0  0  0  0  0  0
   -1.9600   -1.3125   -1.6479 C   0  0  0  0  0  0
   -2.0733   -1.9287   -3.0261 C   0  0  0  0  0  0
    3.8194   -1.3895    0.5352 C   0  0  0  0  0  0
    4.7928   -2.5603    0.2682 C   0  0  0  0  0  0
   -2.9385   -1.2560   -0.8990 O   0  0  0  0  0  0
   -3.1664   -2.7500   -3.3317 C   0  0  0  0  0  0
   -3.2909   -3.3243   -4.5935 C   0  0  0  0  0  0
   -2.3298   -3.0843   -5.5793 C   0  0  0  0  0  0
   -1.2369   -2.2647   -5.2803 C   0  0  0  0  0  0
   -1.1096   -1.6909   -4.0182 C   0  0  0  0  0  0
   -2.4869   -3.7191   -6.9252 C   0  0  0  0  0  0
   -1.7949   -2.9753   -8.3461 S   0  0  0  0  0  0
   -2.4051   -4.2402   -9.3602 C   0  0  0  0  0  0
   -3.1111   -5.1870   -8.6370 C   0  0  0  0  0  0
   -3.1588   -4.8933   -7.2706 C   0  0  0  0  0  0
    4.5159   -3.7936    1.1491 C   0  0  0  0  0  0
    6.2536   -2.0989    0.4139 C   0  0  0  0  0  0
   -0.7564   -0.9082    0.7740 H   0  0  0  0  0  0
   -1.8326    0.5834    1.9451 H   0  0  0  0  0  0
   -3.0139    2.4463    2.5159 H   0  0  0  0  0  0
   -3.0686    2.9338    0.8317 H   0  0  0  0  0  0
    1.5970    0.5248   -0.5525 H   0  0  0  0  0  0
    1.3821    0.2657    1.1605 H   0  0  0  0  0  0
    0.0197   -0.9605   -1.9494 H   0  0  0  0  0  0
    4.0986   -0.5136   -0.0510 H   0  0  0  0  0  0
    3.8197   -1.0893    1.5833 H   0  0  0  0  0  0
    4.6596   -2.8705   -0.7694 H   0  0  0  0  0  0
   -3.9296   -2.9554   -2.5943 H   0  0  0  0  0  0
   -4.1451   -3.9528   -4.7994 H   0  0  0  0  0  0
   -0.4747   -2.0686   -6.0199 H   0  0  0  0  0  0
   -0.2535   -1.0591   -3.8290 H   0  0  0  0  0  0
   -2.2188   -4.2256  -10.4239 H   0  0  0  0  0  0
   -3.5747   -6.0563   -9.0798 H   0  0  0  0  0  0
   -3.6659   -5.5217   -6.5535 H   0  0  0  0  0  0
    4.5515   -3.5431    2.2100 H   0  0  0  0  0  0
    5.2522   -4.5782    0.9708 H   0  0  0  0  0  0
    3.5394   -4.2291    0.9408 H   0  0  0  0  0  0
    6.4693   -1.7730    1.4324 H   0  0  0  0  0  0
    6.4759   -1.2663   -0.2548 H   0  0  0  0  0  0
    6.9488   -2.9031    0.1699 H   0  0  0  0  0  0
  1  2  2  0  0  0
  2 15  1  0  0  0
  2  3  2  0  0  0
  2 11  1  0  0  0
  4  5  1  0  0  0
  4 11  1  0  0  0
  4 12  1  0  0  0
  4 30  1  0  0  0
  5  6  1  0  0  0
  5  7  2  0  0  0
  6  8  1  0  0  0
  6 31  1  0  0  0
  8  9  1  0  0  0
  8 32  1  0  0  0
  8 33  1  0  0  0
  9 10  3  0  0  0
 11 34  1  0  0  0
 11 35  1  0  0  0
 12 13  1  0  0  0
 12 36  1  0  0  0
 13 17  2  0  0  0
 13 14  1  0  0  0
 14 18  2  0  0  0
 14 22  1  0  0  0
 15 16  1  0  0  0
 15 37  1  0  0  0
 15 38  1  0  0  0
 16 28  1  0  0  0
 16 29  1  0  0  0
 16 39  1  0  0  0
 18 19  1  0  0  0
 18 40  1  0  0  0
 19 20  2  0  0  0
 19 41  1  0  0  0
 20 21  1  0  0  0
 20 23  1  0  0  0
 21 22  2  0  0  0
 21 42  1  0  0  0
 22 43  1  0  0  0
 23 24  1  0  0  0
 23 27  2  0  0  0
 24 25  1  0  0  0
 25 26  2  0  0  0
 25 44  1  0  0  0
 26 27  1  0  0  0
 26 45  1  0  0  0
 27 46  1  0  0  0
 28 47  1  0  0  0
 28 48  1  0  0  0
 28 49  1  0  0  0
 29 50  1  0  0  0
 29 51  1  0  0  0
 29 52  1  0  0  0
M  END
> <chembl_id>
CHEMBL2153168

> <chembl_pref_name>
None

> <s_m_source_file>
sdf/inactives_sanitized.sdf

> <i_m_source_file_index>
201

> <i_lp_mmshare_version>
49012

> <i_m_ct_stereo_status>
1

> <i_f3d_flags>
0

> <s_epik_input>
TiNDW0NIMl1bTkhdQyg9TylbQ0BIXShbQ0gyXVMoPU8pKD1PKVtDSDJdW0NIXShbQ0gzXSlbQ0gzXSlbTkhdQyg9TyljMVtjSF1bY0hdYyhbY0hdW2NIXTEpLWMyc1tjSF1bY0hdW2NIXTI=

> <s_epik_cmdline>
J2VwaWtfcHl0aG9uJywgJy1waHQnLCAnMC41JywgJy1waCcsICc3LjUnLCAnLW50JywgJy1tYScsICcyMDAnLCAnLWltYWUnLCAnPGluZmlsZS5tYWU+JywgJy1vbWFlJywgJzxvdXRmaWxlLm1hZT4n

> <r_lp_tautomer_probability>
1

> <r_epik_Ionization_Penalty>
  0.0001

> <r_epik_Ionization_Penalty_Charging>
  0.0000

> <r_epik_Ionization_Penalty_Neutral>
  0.0001

> <r_epik_State_Penalty>
 -0.0000

> <r_epik_Charging_Adjusted_Penalty>
0

> <i_epik_Tot_Q>
0

> <i_epik_Tot_abs_Q>
0

> <s_lp_Force_Field>
OPLS3e

> <r_lp_Energy>
10.270187

> <b_lp_Chiralities_Consistent>
1

> <s_lp_Variant>
sdf/inactives_sanitized.sdf:201-1

$$$$
sdf/inactives_sanitized.sdf:202
                    3D
 Schrodinger Suite 2020-1.
 21 22  0  0  1  0            999 V2000
   -0.6137    1.2107   -0.0000 N   0  0  0  0  0  0
    0.0435    0.0333   -0.0000 C   0  0  0  0  0  0
   -0.6092   -1.1887   -0.0000 C   0  0  0  0  0  0
   -1.9991   -1.2090    0.0000 C   0  0  0  0  0  0
   -2.7569    0.0072   -0.0000 C   0  0  0  0  0  0
   -4.2061    0.0883   -0.0000 C   0  0  0  0  0  0
   -4.7881    1.3639   -0.0000 C   0  0  0  0  0  0
   -4.0405    2.5278   -0.0000 C   0  0  0  0  0  0
   -2.6548    2.4869   -0.0000 C   0  0  0  0  0  0
   -1.9849    1.2246   -0.0000 C   0  0  0  0  0  0
   -2.0300    3.5983   -0.0000 O   0  5  0  0  0  0
   -5.1290   -1.0898   -0.0000 N   0  3  0  0  0  0
   -6.3404   -0.8835   -0.0000 O   0  0  0  0  0  0
   -4.6910   -2.2316   -0.0000 O   0  5  0  0  0  0
    1.4359    0.0786   -0.0000 N   0  0  0  0  0  0
   -0.0544   -2.1159   -0.0000 H   0  0  0  0  0  0
   -2.4555   -2.1808    0.0000 H   0  0  0  0  0  0
   -5.8622    1.4778   -0.0000 H   0  0  0  0  0  0
   -4.5591    3.4766    0.0000 H   0  0  0  0  0  0
    1.9634   -0.7821   -0.0000 H   0  0  0  0  0  0
    1.8990    0.9761   -0.0000 H   0  0  0  0  0  0
  1  2  2  0  0  0
  1 10  1  0  0  0
  2  3  1  0  0  0
  2 15  1  0  0  0
  3  4  2  0  0  0
  3 16  1  0  0  0
  4  5  1  0  0  0
  4 17  1  0  0  0
  5  6  2  0  0  0
  5 10  1  0  0  0
  6  7  1  0  0  0
  6 12  1  0  0  0
  7  8  2  0  0  0
  7 18  1  0  0  0
  8  9  1  0  0  0
  8 19  1  0  0  0
  9 10  2  0  0  0
  9 11  1  0  0  0
 12 13  2  0  0  0
 12 14  1  0  0  0
 15 20  1  0  0  0
 15 21  1  0  0  0
M  CHG  3  11  -1  12   1  14  -1
M  END
> <chembl_id>
CHEMBL4224754

> <chembl_pref_name>
None

> <s_m_source_file>
sdf/inactives_sanitized.sdf

> <i_m_source_file_index>
202

> <i_lp_mmshare_version>
49012

> <i_m_ct_stereo_status>
1

> <i_f3d_flags>
0

> <s_epik_input>
W2NIXTFbY0hdYyhbTkgyXSluYyhjMTIpYyhbT0hdKVtjSF1bY0hdYzJbTitdKD1PKVtPLV0=

> <s_epik_cmdline>
J2VwaWtfcHl0aG9uJywgJy1waHQnLCAnMC41JywgJy1waCcsICc3LjUnLCAnLW50JywgJy1tYScsICcyMDAnLCAnLWltYWUnLCAnPGluZmlsZS5tYWU+JywgJy1vbWFlJywgJzxvdXRmaWxlLm1hZT4n

> <r_lp_tautomer_probability>
1

> <r_epik_Ionization_Penalty>
  0.0015

> <r_epik_Ionization_Penalty_Charging>
  0.0013

> <r_epik_Ionization_Penalty_Neutral>
  0.0002

> <r_epik_State_Penalty>
 -0.0000

> <r_epik_Charging_Adjusted_Penalty>
0.00131833167295768

> <i_epik_Tot_Q>
-1

> <i_epik_Tot_abs_Q>
3

> <s_lp_Force_Field>
OPLS3e

> <r_lp_Energy>
29.342231

> <b_lp_Chiralities_Consistent>
1

> <s_lp_Variant>
sdf/inactives_sanitized.sdf:202-1

$$$$
sdf/inactives_sanitized.sdf:203
                    3D
 Schrodinger Suite 2020-1.
 54 56  0  0  1  0            999 V2000
   -1.7818   -1.7620    0.1650 C   0  0  1  0  0  0
   -2.6017   -3.6087    0.7535 N   0  0  0  0  0  0
   -2.0479   -3.1306   -0.5348 C   0  0  1  0  0  0
   -2.2575   -2.4579    1.4615 C   0  0  0  0  0  0
    0.0589   -0.1148    0.5320 C   0  0  0  0  0  0
   -0.3811   -1.3364    0.1794 N   0  0  0  0  0  0
    1.5889    0.1238    0.4173 C   0  0  1  0  0  0
   -2.9765   -3.1321   -1.5852 O   0  0  0  0  0  0
    1.5796    0.1060   -2.8193 C   0  0  0  0  0  0
    1.8906    1.2773   -0.6081 C   0  0  1  0  0  0
    1.2908    1.1427   -1.9434 N   0  0  0  0  0  0
   -2.5803   -2.5588   -2.7582 C   0  0  0  0  0  0
   -2.3525   -2.1384    2.6444 O   0  0  0  0  0  0
   -0.6979    0.7826    0.9064 O   0  0  0  0  0  0
    2.3678   -0.8213   -2.6187 O   0  0  0  0  0  0
    0.8557    0.2746   -3.9420 O   0  0  0  0  0  0
   -1.4841   -2.0489   -3.0013 O   0  0  0  0  0  0
    0.9606   -0.6419   -5.0240 C   0  0  0  0  0  0
    2.1772    0.4378    1.8217 C   0  0  0  0  0  0
    0.1239   -0.1426   -6.1873 C   0  0  0  0  0  0
    1.6946    2.7070   -0.0362 C   0  0  0  0  0  0
   -3.6721   -2.5996   -3.8209 C   0  0  0  0  0  0
    0.7215    0.6102   -7.2009 C   0  0  0  0  0  0
   -1.2416   -0.4319   -6.2380 C   0  0  0  0  0  0
    1.9223    1.8564    2.3617 C   0  0  0  0  0  0
    2.3507    2.9191    1.3409 C   0  0  0  0  0  0
   -2.0103    0.0321   -7.3021 C   0  0  0  0  0  0
   -0.0477    1.0743   -8.2650 C   0  0  0  0  0  0
   -1.4098    0.7831   -8.3106 C   0  0  0  0  0  0
   -2.3985   -0.9278   -0.1778 H   0  0  0  0  0  0
   -3.3660   -4.2417    0.9392 H   0  0  0  0  0  0
   -1.1756   -3.7192   -0.8380 H   0  0  0  0  0  0
    0.2995   -2.0322   -0.0893 H   0  0  0  0  0  0
    2.0075   -0.8210    0.0643 H   0  0  0  0  0  0
    2.9667    1.2073   -0.7860 H   0  0  0  0  0  0
    0.6104    1.8321   -2.2280 H   0  0  0  0  0  0
    1.9999   -0.7503   -5.3402 H   0  0  0  0  0  0
    0.6164   -1.6328   -4.7230 H   0  0  0  0  0  0
    1.8855   -0.3337    2.5370 H   0  0  0  0  0  0
    3.2488    0.2374    1.7762 H   0  0  0  0  0  0
    2.0924    3.4458   -0.7337 H   0  0  0  0  0  0
    0.6287    2.9169    0.0623 H   0  0  0  0  0  0
   -4.0463   -1.5937   -4.0103 H   0  0  0  0  0  0
   -4.5091   -3.2241   -3.5076 H   0  0  0  0  0  0
   -3.2747   -3.0006   -4.7535 H   0  0  0  0  0  0
    1.7770    0.8380   -7.1640 H   0  0  0  0  0  0
   -1.7077   -1.0112   -5.4558 H   0  0  0  0  0  0
    0.8684    1.9839    2.6093 H   0  0  0  0  0  0
    2.4675    1.9989    3.2954 H   0  0  0  0  0  0
    2.1060    3.9129    1.7180 H   0  0  0  0  0  0
    3.4358    2.8965    1.2301 H   0  0  0  0  0  0
   -3.0669   -0.1880   -7.3442 H   0  0  0  0  0  0
    0.4093    1.6577   -9.0506 H   0  0  0  0  0  0
   -2.0065    1.1437   -9.1355 H   0  0  0  0  0  0
  1  3  1  0  0  0
  1  4  1  0  0  0
  1  6  1  0  0  0
  1 30  1  0  0  0
  2  4  1  0  0  0
  2  3  1  0  0  0
  2 31  1  0  0  0
  3  8  1  0  0  0
  3 32  1  0  0  0
  4 13  2  0  0  0
  5  6  1  0  0  0
  5  7  1  0  0  0
  5 14  2  0  0  0
  6 33  1  0  0  0
  7 10  1  0  0  0
  7 19  1  0  0  0
  7 34  1  0  0  0
  8 12  1  0  0  0
  9 11  1  0  0  0
  9 15  2  0  0  0
  9 16  1  0  0  0
 10 11  1  0  0  0
 10 21  1  0  0  0
 10 35  1  0  0  0
 11 36  1  0  0  0
 12 17  2  0  0  0
 12 22  1  0  0  0
 16 18  1  0  0  0
 18 20  1  0  0  0
 18 37  1  0  0  0
 18 38  1  0  0  0
 19 25  1  0  0  0
 19 39  1  0  0  0
 19 40  1  0  0  0
 20 23  2  0  0  0
 20 24  1  0  0  0
 21 26  1  0  0  0
 21 41  1  0  0  0
 21 42  1  0  0  0
 22 43  1  0  0  0
 22 44  1  0  0  0
 22 45  1  0  0  0
 23 28  1  0  0  0
 23 46  1  0  0  0
 24 27  2  0  0  0
 24 47  1  0  0  0
 25 26  1  0  0  0
 25 48  1  0  0  0
 25 49  1  0  0  0
 26 50  1  0  0  0
 26 51  1  0  0  0
 27 29  1  0  0  0
 27 52  1  0  0  0
 28 29  2  0  0  0
 28 53  1  0  0  0
 29 54  1  0  0  0
M  END
> <chembl_id>
CHEMBL64098

> <chembl_pref_name>
None

> <i_m_ct_stereo_status>
1

> <s_m_source_file>
sdf/inactives_sanitized.sdf

> <i_m_source_file_index>
203

> <i_lp_mmshare_version>
49012

> <i_f3d_flags>
0

> <s_epik_input>
Tz1DMVtOSF1bQ0BASF0oT0MoPU8pW0NIM10pW0NAQEhdMVtOSF1DKD1PKVtDQEhdMltDQEhdKFtDSDJdW0NIMl1bQ0gyXVtDSDJdMilbTkhdQyg9TylPW0NIMl1jM1tjSF1bY0hdW2NIXVtjSF1bY0hdMw==

> <s_epik_cmdline>
J2VwaWtfcHl0aG9uJywgJy1waHQnLCAnMC41JywgJy1waCcsICc3LjUnLCAnLW50JywgJy1tYScsICcyMDAnLCAnLWltYWUnLCAnPGluZmlsZS5tYWU+JywgJy1vbWFlJywgJzxvdXRmaWxlLm1hZT4n

> <r_lp_tautomer_probability>
1

> <r_epik_Ionization_Penalty>
  0.0000

> <r_epik_Ionization_Penalty_Charging>
  0.0000

> <r_epik_Ionization_Penalty_Neutral>
  0.0000

> <r_epik_State_Penalty>
 -0.0000

> <r_epik_Charging_Adjusted_Penalty>
0

> <i_epik_Tot_Q>
0

> <i_epik_Tot_abs_Q>
0

> <s_epik_Chemistry_Notes>
This compound has an ester and may undergo hydrolysis at high or low pH. This compound contains an acetal/aminal-like group ( X-CH(R)-Y where X, Y are N, S, or O) that may be acid/base labile, releasing an aldehyde.

> <s_lp_Force_Field>
OPLS3e

> <r_lp_Energy>
33.223451

> <b_lp_Chiralities_Consistent>
1

> <s_lp_Variant>
sdf/inactives_sanitized.sdf:203-1

$$$$
sdf/inactives_sanitized.sdf:204
                    3D
 Schrodinger Suite 2020-1.
 79 80  0  0  1  0            999 V2000
    1.7337   -0.5465   -1.3145 C   0  0  0  0  0  0
   -0.9181    1.0395   -0.3425 C   0  0  0  0  0  0
   -0.0972    0.0990    0.1638 N   0  0  0  0  0  0
    3.2249   -0.2956   -1.7929 C   0  0  0  0  0  0
   -3.4073    3.1376   -0.1973 C   0  0  0  0  0  0
   -2.4379    0.8063   -0.1277 C   0  0  2  0  0  0
    1.3706    0.0731    0.0416 C   0  0  1  0  0  0
   -3.3056    1.8495   -0.7200 N   0  0  0  0  0  0
    3.6594   -0.3149   -7.0874 N   0  0  0  0  0  0
    0.9558   -1.2030   -2.0173 O   0  0  0  0  0  0
   -0.5137    2.0219   -0.9676 O   0  0  0  0  0  0
   -2.8673    3.5645    0.8262 O   0  0  0  0  0  0
    3.9468    0.5399   -1.2462 O   0  0  0  0  0  0
   -4.1959    3.8677   -1.0082 O   0  0  0  0  0  0
   -2.8114    0.4800    1.3563 C   0  0  0  0  0  0
    3.5704   -1.0881   -2.8243 N   0  0  0  0  0  0
    1.7674   -0.1276   -9.2259 O   0  0  0  0  0  0
   -4.4853    5.2286   -0.7137 C   0  0  0  0  0  0
    4.0635   -0.0395   -5.7053 C   0  0  0  0  0  0
   -5.3004    5.8260   -1.8452 C   0  0  0  0  0  0
    4.7395   -1.2466   -5.0140 C   0  0  0  0  0  0
    3.4324    0.9417   -7.8147 C   0  0  0  0  0  0
    2.4865   -1.2013   -7.1622 C   0  0  0  0  0  0
    2.0197   -0.7259    1.2028 C   0  0  0  0  0  0
   -4.2976    0.1307    1.6154 C   0  0  0  0  0  0
    4.8731   -1.0955   -3.4892 C   0  0  0  0  0  0
    2.0057   -1.3914   -8.6171 C   0  0  0  0  0  0
    2.9339    0.6867   -9.2530 C   0  0  0  0  0  0
   -6.6815    5.6208   -1.8915 C   0  0  0  0  0  0
   -4.6658    6.5751   -2.8387 C   0  0  0  0  0  0
    1.7155   -0.1426    2.5982 C   0  0  0  0  0  0
   -4.5677   -0.0402    3.1258 C   0  0  0  0  0  0
   -4.7703   -1.0904    0.7973 C   0  0  0  0  0  0
    2.4186   -0.9043    3.7295 C   0  0  0  0  0  0
   -7.4280    6.1653   -2.9335 C   0  0  0  0  0  0
   -5.4131    7.1195   -3.8799 C   0  0  0  0  0  0
   -6.7907    6.9125   -3.9222 C   0  0  0  0  0  0
   -0.5031   -0.6882    0.6485 H   0  0  0  0  0  0
   -2.6645   -0.0862   -0.7112 H   0  0  0  0  0  0
    1.7338    1.1028    0.0929 H   0  0  0  0  0  0
   -3.6212    1.7017   -1.6673 H   0  0  0  0  0  0
   -2.2154   -0.3642    1.7068 H   0  0  0  0  0  0
   -2.5241    1.3142    1.9975 H   0  0  0  0  0  0
    2.8883   -1.7483   -3.1696 H   0  0  0  0  0  0
   -5.0450    5.3065    0.2200 H   0  0  0  0  0  0
   -3.5653    5.8012   -0.5809 H   0  0  0  0  0  0
    4.7944    0.7715   -5.7102 H   0  0  0  0  0  0
    3.2248    0.3392   -5.1182 H   0  0  0  0  0  0
    4.2925   -2.2039   -5.2798 H   0  0  0  0  0  0
    5.7596   -1.3020   -5.3970 H   0  0  0  0  0  0
    2.7067    1.5538   -7.2756 H   0  0  0  0  0  0
    4.3566    1.5209   -7.8380 H   0  0  0  0  0  0
    2.7104   -2.1730   -6.7239 H   0  0  0  0  0  0
    1.6760   -0.7838   -6.5619 H   0  0  0  0  0  0
    1.6738   -1.7614    1.1764 H   0  0  0  0  0  0
    3.1032   -0.7570    1.0745 H   0  0  0  0  0  0
   -4.8986    0.9833    1.2975 H   0  0  0  0  0  0
    5.4816   -1.9013   -3.0764 H   0  0  0  0  0  0
    5.4038   -0.1636   -3.2795 H   0  0  0  0  0  0
    1.0780   -1.9640   -8.6291 H   0  0  0  0  0  0
    2.7315   -1.9639   -9.1979 H   0  0  0  0  0  0
    2.6870    1.6332   -9.7345 H   0  0  0  0  0  0
    3.7120    0.2214   -9.8615 H   0  0  0  0  0  0
   -7.1743    5.0396   -1.1255 H   0  0  0  0  0  0
   -3.5975    6.7335   -2.8067 H   0  0  0  0  0  0
    2.0216    0.9040    2.6317 H   0  0  0  0  0  0
    0.6405   -0.1561    2.7831 H   0  0  0  0  0  0
   -4.8321   -1.0634    3.3933 H   0  0  0  0  0  0
   -5.3886    0.6018    3.4467 H   0  0  0  0  0  0
   -3.6996    0.2266    3.7297 H   0  0  0  0  0  0
   -3.9340   -1.6859    0.4313 H   0  0  0  0  0  0
   -5.3474   -0.7695   -0.0704 H   0  0  0  0  0  0
   -5.4105   -1.7598    1.3718 H   0  0  0  0  0  0
    2.1795   -0.4672    4.6994 H   0  0  0  0  0  0
    3.5025   -0.8753    3.6125 H   0  0  0  0  0  0
    2.1119   -1.9505    3.7535 H   0  0  0  0  0  0
   -8.4959    6.0086   -2.9752 H   0  0  0  0  0  0
   -4.9271    7.6988   -4.6512 H   0  0  0  0  0  0
   -7.3699    7.3345   -4.7301 H   0  0  0  0  0  0
  1  4  1  0  0  0
  1  7  1  0  0  0
  1 10  2  0  0  0
  2  3  1  0  0  0
  2  6  1  0  0  0
  2 11  2  0  0  0
  3  7  1  0  0  0
  3 38  1  0  0  0
  4 13  2  0  0  0
  4 16  1  0  0  0
  5  8  1  0  0  0
  5 12  2  0  0  0
  5 14  1  0  0  0
  6  8  1  0  0  0
  6 15  1  0  0  0
  6 39  1  0  0  0
  7 24  1  0  0  0
  7 40  1  0  0  0
  8 41  1  0  0  0
  9 19  1  0  0  0
  9 22  1  0  0  0
  9 23  1  0  0  0
 14 18  1  0  0  0
 15 25  1  0  0  0
 15 42  1  0  0  0
 15 43  1  0  0  0
 16 26  1  0  0  0
 16 44  1  0  0  0
 17 27  1  0  0  0
 17 28  1  0  0  0
 18 20  1  0  0  0
 18 45  1  0  0  0
 18 46  1  0  0  0
 19 21  1  0  0  0
 19 47  1  0  0  0
 19 48  1  0  0  0
 20 29  2  0  0  0
 20 30  1  0  0  0
 21 26  1  0  0  0
 21 49  1  0  0  0
 21 50  1  0  0  0
 22 28  1  0  0  0
 22 51  1  0  0  0
 22 52  1  0  0  0
 23 27  1  0  0  0
 23 53  1  0  0  0
 23 54  1  0  0  0
 24 31  1  0  0  0
 24 55  1  0  0  0
 24 56  1  0  0  0
 25 32  1  0  0  0
 25 33  1  0  0  0
 25 57  1  0  0  0
 26 58  1  0  0  0
 26 59  1  0  0  0
 27 60  1  0  0  0
 27 61  1  0  0  0
 28 62  1  0  0  0
 28 63  1  0  0  0
 29 35  1  0  0  0
 29 64  1  0  0  0
 30 36  2  0  0  0
 30 65  1  0  0  0
 31 34  1  0  0  0
 31 66  1  0  0  0
 31 67  1  0  0  0
 32 68  1  0  0  0
 32 69  1  0  0  0
 32 70  1  0  0  0
 33 71  1  0  0  0
 33 72  1  0  0  0
 33 73  1  0  0  0
 34 74  1  0  0  0
 34 75  1  0  0  0
 34 76  1  0  0  0
 35 37  2  0  0  0
 35 77  1  0  0  0
 36 37  1  0  0  0
 36 78  1  0  0  0
 37 79  1  0  0  0
M  END
> <chembl_id>
CHEMBL336649

> <chembl_pref_name>
None

> <s_m_source_file>
sdf/inactives_sanitized.sdf

> <i_m_source_file_index>
204

> <i_lp_mmshare_version>
49012

> <i_m_ct_stereo_status>
1

> <i_f3d_flags>
0

> <s_epik_input>
W0NIMl0xW0NIMl1PW0NIMl1bQ0gyXU4xW0NIMl1bQ0gyXVtDSDJdW05IXUMoPU8pQyg9TylbQ0BIXShbQ0gyXVtDSDJdW0NIM10pW05IXUMoPU8pW0NAQEhdKFtDSDJdW0NIXShbQ0gzXSlbQ0gzXSlbTkhdQyg9TylPW0NIMl1jMltjSF1bY0hdW2NIXVtjSF1bY0hdMg==

> <s_epik_cmdline>
J2VwaWtfcHl0aG9uJywgJy1waHQnLCAnMC41JywgJy1waCcsICc3LjUnLCAnLW50JywgJy1tYScsICcyMDAnLCAnLWltYWUnLCAnPGluZmlsZS5tYWU+JywgJy1vbWFlJywgJzxvdXRmaWxlLm1hZT4n

> <r_lp_tautomer_probability>
0.99990000499975

> <r_epik_Ionization_Penalty>
  0.1909

> <r_epik_Ionization_Penalty_Charging>
  0.0000

> <r_epik_Ionization_Penalty_Neutral>
  0.1909

> <r_epik_State_Penalty>
  0.1805

> <r_epik_Charging_Adjusted_Penalty>
0.180534982395036

> <i_epik_Tot_Q>
0

> <i_epik_Tot_abs_Q>
0

> <s_epik_Chemistry_Notes>
This compound has an ester and may undergo hydrolysis at high or low pH.

> <s_lp_Force_Field>
OPLS3e

> <r_lp_Energy>
39.0397

> <b_lp_Chiralities_Consistent>
1

> <s_lp_Variant>
sdf/inactives_sanitized.sdf:204-1

$$$$
sdf/inactives_sanitized.sdf:205
                    3D
 Schrodinger Suite 2020-1.
 49 51  0  0  1  0            999 V2000
   -1.6211    2.9933   -0.7809 O   0  0  0  0  0  0
   -1.1162    1.7933   -1.1236 C   0  0  0  0  0  0
   -1.0837    1.3461   -2.2731 O   0  0  0  0  0  0
   -0.6356    1.1676    0.0207 N   0  0  0  0  0  0
    0.0573   -0.1286   -0.0604 C   0  0  2  0  0  0
   -0.4697   -0.9031    1.1451 C   0  0  0  0  0  0
    0.2522   -1.1491    2.1140 O   0  0  0  0  0  0
   -1.8520   -1.3832    1.1235 C   0  0  0  0  0  0
   -2.7628   -1.2586    0.1856 N   0  0  0  0  0  0
   -3.9065   -1.8940    0.6608 N   0  0  0  0  0  0
   -3.5950   -2.3560    1.8464 C   0  0  0  0  0  0
   -2.3165   -2.0692    2.2011 O   0  0  0  0  0  0
    1.6071    0.0007   -0.0684 C   0  0  0  0  0  0
    2.1699    0.7449   -1.2962 C   0  0  0  0  0  0
    3.7077    0.7459   -1.3450 C   0  0  0  0  0  0
   -4.4384   -3.1024    2.7551 C   0  0  0  0  0  0
   -5.7547   -3.5425    2.6951 C   0  0  0  0  0  0
   -6.0136   -4.2235    3.8852 C   0  0  0  0  0  0
   -4.8442   -4.1704    4.6233 C   0  0  0  0  0  0
   -3.8895   -3.4904    3.9382 O   0  0  0  0  0  0
    4.2655    1.5237   -2.5446 C   0  0  0  0  0  0
   -2.1713    3.8584   -1.7667 C   0  0  0  0  0  0
   -2.5501    5.1803   -1.1258 C   0  0  0  0  0  0
   -3.8695    5.4098   -0.7285 C   0  0  0  0  0  0
   -4.2147    6.6248   -0.1416 C   0  0  0  0  0  0
   -3.2395    7.6030    0.0455 C   0  0  0  0  0  0
   -1.9217    7.3775   -0.3479 C   0  0  0  0  0  0
   -1.5758    6.1633   -0.9354 C   0  0  0  0  0  0
   -0.5776    1.6936    0.8805 H   0  0  0  0  0  0
   -0.2419   -0.6804   -0.9554 H   0  0  0  0  0  0
    1.9401    0.5240    0.8304 H   0  0  0  0  0  0
    2.0502   -0.9967   -0.0329 H   0  0  0  0  0  0
    1.8177    1.7772   -1.2899 H   0  0  0  0  0  0
    1.7807    0.2898   -2.2084 H   0  0  0  0  0  0
    4.1038    1.1781   -0.4250 H   0  0  0  0  0  0
    4.0740   -0.2810   -1.3830 H   0  0  0  0  0  0
   -6.4458   -3.3870    1.8795 H   0  0  0  0  0  0
   -6.9404   -4.6976    4.1725 H   0  0  0  0  0  0
   -4.5584   -4.5488    5.5938 H   0  0  0  0  0  0
    5.3556    1.5070   -2.5465 H   0  0  0  0  0  0
    3.9511    2.5678   -2.5203 H   0  0  0  0  0  0
    3.9261    1.0938   -3.4877 H   0  0  0  0  0  0
   -1.4524    4.0399   -2.5679 H   0  0  0  0  0  0
   -3.0500    3.4024   -2.2265 H   0  0  0  0  0  0
   -4.6252    4.6512   -0.8726 H   0  0  0  0  0  0
   -5.2334    6.8080    0.1669 H   0  0  0  0  0  0
   -3.5079    8.5452    0.5005 H   0  0  0  0  0  0
   -1.1718    8.1403   -0.1982 H   0  0  0  0  0  0
   -0.5542    5.9869   -1.2402 H   0  0  0  0  0  0
  1  2  1  0  0  0
  1 22  1  0  0  0
  2  3  2  0  0  0
  2  4  1  0  0  0
  4  5  1  0  0  0
  4 29  1  0  0  0
  5  6  1  0  0  0
  5 13  1  0  0  0
  5 30  1  0  0  0
  6  8  1  0  0  0
  6  7  2  0  0  0
  8 12  1  0  0  0
  8  9  2  0  0  0
  9 10  1  0  0  0
 10 11  2  0  0  0
 11 16  1  0  0  0
 11 12  1  0  0  0
 13 14  1  0  0  0
 13 31  1  0  0  0
 13 32  1  0  0  0
 14 15  1  0  0  0
 14 33  1  0  0  0
 14 34  1  0  0  0
 15 21  1  0  0  0
 15 35  1  0  0  0
 15 36  1  0  0  0
 16 17  2  0  0  0
 16 20  1  0  0  0
 17 18  1  0  0  0
 17 37  1  0  0  0
 18 19  2  0  0  0
 18 38  1  0  0  0
 19 20  1  0  0  0
 19 39  1  0  0  0
 21 40  1  0  0  0
 21 41  1  0  0  0
 21 42  1  0  0  0
 22 23  1  0  0  0
 22 43  1  0  0  0
 22 44  1  0  0  0
 23 24  2  0  0  0
 23 28  1  0  0  0
 24 25  1  0  0  0
 24 45  1  0  0  0
 25 26  2  0  0  0
 25 46  1  0  0  0
 26 27  1  0  0  0
 26 47  1  0  0  0
 27 28  2  0  0  0
 27 48  1  0  0  0
 28 49  1  0  0  0
M  END
> <chembl_id>
CHEMBL411498

> <chembl_pref_name>
None

> <i_m_ct_stereo_status>
1

> <s_m_source_file>
sdf/inactives_sanitized.sdf

> <i_m_source_file_index>
205

> <i_lp_mmshare_version>
49012

> <i_f3d_flags>
0

> <s_epik_input>
W2NIXTFbY0hdW2NIXVtjSF1bY0hdYzFbQ0gyXU9DKD1PKVtOSF1bQ0BASF0oW0NIMl1bQ0gyXVtDSDJdW0NIM10pQyg9TyljMm5uYyhvMiktYzNbY0hdW2NIXVtjSF1vMw==

> <s_epik_cmdline>
J2VwaWtfcHl0aG9uJywgJy1waHQnLCAnMC41JywgJy1waCcsICc3LjUnLCAnLW50JywgJy1tYScsICcyMDAnLCAnLWltYWUnLCAnPGluZmlsZS5tYWU+JywgJy1vbWFlJywgJzxvdXRmaWxlLm1hZT4n

> <r_lp_tautomer_probability>
1

> <r_epik_Ionization_Penalty>
  0.0000

> <r_epik_Ionization_Penalty_Charging>
  0.0000

> <r_epik_Ionization_Penalty_Neutral>
  0.0000

> <r_epik_State_Penalty>
 -0.0000

> <r_epik_Charging_Adjusted_Penalty>
0

> <i_epik_Tot_Q>
0

> <i_epik_Tot_abs_Q>
0

> <s_epik_Chemistry_Notes>
This compound has an ester and may undergo hydrolysis at high or low pH.

> <s_lp_Force_Field>
OPLS3e

> <r_lp_Energy>
30.405998

> <b_lp_Chiralities_Consistent>
1

> <s_lp_Variant>
sdf/inactives_sanitized.sdf:205-1

$$$$
sdf/inactives_sanitized.sdf:206
                    3D
 Schrodinger Suite 2020-1.
 90 96  0  0  1  0            999 V2000
    0.3042    0.2101   -0.1289 O   0  0  0  0  0  0
   -0.3828    1.3998    0.0507 C   0  0  0  0  0  0
    0.1994    2.5745    0.5509 C   0  0  0  0  0  0
   -0.5602    3.7398    0.6923 C   0  0  0  0  0  0
   -1.8751    3.7791    0.3499 N   0  0  0  0  0  0
   -1.7621    1.4346   -0.3006 C   0  0  0  0  0  0
   -2.4749    2.6585   -0.1317 C   0  0  0  0  0  0
   -3.8474    2.7227   -0.4726 C   0  0  0  0  0  0
   -4.5148    1.5955   -0.9740 C   0  0  0  0  0  0
   -3.8092    0.4053   -1.1372 C   0  0  0  0  0  0
   -2.4588    0.3102   -0.8123 C   0  0  0  0  0  0
    0.0329    5.0200    1.1985 C   0  0  0  0  0  0
    1.1215    5.0031    2.0844 C   0  0  0  0  0  0
    1.6819    6.1879    2.5541 C   0  0  0  0  0  0
    1.1584    7.4092    2.1425 C   0  0  0  0  0  0
    0.0775    7.4529    1.2679 C   0  0  0  0  0  0
   -0.4811    6.2658    0.8019 C   0  0  0  0  0  0
   -5.8507    1.5750   -1.3269 O   0  0  0  0  0  0
   -6.6266    2.7593   -1.1764 C   0  0  0  0  0  0
    4.5081    0.6542   -3.5406 N   0  0  0  0  0  0
    4.5742    0.1227   -2.3005 C   0  0  0  0  0  0
    6.8140   -1.7496   -5.1670 C   0  0  0  0  0  0
    6.6163   -3.0754   -5.0701 C   0  0  0  0  0  0
    7.6415   -4.0993   -4.6262 C   0  0  0  0  0  0
    3.6840   -2.8265   -1.2663 C   0  0  0  0  0  0
    7.1097   -4.9582   -3.4520 C   0  0  0  0  0  0
    4.6515   -3.6371   -0.7507 N   0  0  0  0  0  0
    6.6312   -4.1390   -2.2216 C   0  0  0  0  0  0
    5.3189   -4.6558   -1.5821 C   0  0  0  0  0  0
    3.3908   -1.4418   -0.6133 C   0  0  1  0  0  0
    3.2388   -0.2906   -1.6431 C   0  0  1  0  0  0
    2.5896    0.8316   -0.8255 C   0  0  0  0  0  0
    1.6892    0.1127    0.2131 C   0  0  2  0  0  0
    2.0673   -1.3881    0.1617 C   0  0  0  0  0  0
    5.6404   -0.2037   -1.7719 O   0  0  0  0  0  0
    5.6262    0.5717   -4.4902 C   0  0  1  0  0  0
    5.6299   -0.7996   -5.1715 C   0  0  1  0  0  0
    5.4751    0.4261   -6.0145 C   0  0  0  0  0  0
    6.9187    1.3854   -4.1484 C   0  0  0  0  0  0
    6.9468    2.7000   -4.1512 N   0  5  0  0  0  0
    7.9283    0.7433   -3.8687 O   0  0  0  0  0  0
    3.0601   -3.1293   -2.2868 O   0  0  0  0  0  0
    5.6919    3.6075   -4.4352 S   0  0  0  0  0  0
    5.1169    3.4046   -5.7699 O   0  0  0  0  0  0
    4.7486    3.6359   -3.3115 O   0  0  0  0  0  0
    6.3805    5.3851   -4.5012 C   0  0  0  0  0  0
    7.7417    5.5953   -5.1237 C   0  0  0  0  0  0
    7.5629    5.7313   -3.6246 C   0  0  0  0  0  0
    5.2932   -3.4287    0.5501 C   0  0  0  0  0  0
    1.2454    2.5960    0.8118 H   0  0  0  0  0  0
   -4.3626    3.6620   -0.3345 H   0  0  0  0  0  0
   -4.3189   -0.4653   -1.5237 H   0  0  0  0  0  0
   -1.9390   -0.6268   -0.9506 H   0  0  0  0  0  0
    1.5393    4.0688    2.4288 H   0  0  0  0  0  0
    2.5182    6.1589    3.2370 H   0  0  0  0  0  0
    1.5925    8.3289    2.5055 H   0  0  0  0  0  0
   -0.3259    8.4032    0.9508 H   0  0  0  0  0  0
   -1.3160    6.3236    0.1186 H   0  0  0  0  0  0
   -7.6491    2.5641   -1.4989 H   0  0  0  0  0  0
   -6.2370    3.5734   -1.7894 H   0  0  0  0  0  0
   -6.6653    3.0823   -0.1349 H   0  0  0  0  0  0
    3.6869    1.1658   -3.8288 H   0  0  0  0  0  0
    7.8077   -1.3467   -5.0555 H   0  0  0  0  0  0
    5.6045   -3.4524   -5.1271 H   0  0  0  0  0  0
    7.8758   -4.7452   -5.4727 H   0  0  0  0  0  0
    8.5775   -3.6138   -4.3453 H   0  0  0  0  0  0
    6.2849   -5.5637   -3.8314 H   0  0  0  0  0  0
    7.8723   -5.6745   -3.1433 H   0  0  0  0  0  0
    7.4220   -4.1254   -1.4707 H   0  0  0  0  0  0
    6.4901   -3.0918   -2.4917 H   0  0  0  0  0  0
    5.5163   -5.5594   -1.0039 H   0  0  0  0  0  0
    4.6430   -4.9683   -2.3795 H   0  0  0  0  0  0
    4.2033   -1.2014    0.0728 H   0  0  0  0  0  0
    2.5695   -0.5819   -2.4570 H   0  0  0  0  0  0
    3.3258    1.4562   -0.3153 H   0  0  0  0  0  0
    2.0115    1.4693   -1.4960 H   0  0  0  0  0  0
    1.8586    0.4750    1.2290 H   0  0  0  0  0  0
    2.1827   -1.8026    1.1642 H   0  0  0  0  0  0
    1.2918   -1.9692   -0.3431 H   0  0  0  0  0  0
    4.6873   -1.3477   -5.0969 H   0  0  0  0  0  0
    6.3020    0.6176   -6.7006 H   0  0  0  0  0  0
    4.5009    0.5605   -6.4849 H   0  0  0  0  0  0
    5.5899    6.1168   -4.6643 H   0  0  0  0  0  0
    8.2796    4.7352   -5.5224 H   0  0  0  0  0  0
    7.8999    6.4925   -5.7221 H   0  0  0  0  0  0
    7.9781    4.9689   -2.9653 H   0  0  0  0  0  0
    7.5943    6.7234   -3.1745 H   0  0  0  0  0  0
    4.6592   -2.8861    1.2513 H   0  0  0  0  0  0
    6.2302   -2.8836    0.4311 H   0  0  0  0  0  0
    5.5184   -4.3888    1.0157 H   0  0  0  0  0  0
  1  2  1  0  0  0
  1 33  1  0  0  0
  2  6  2  0  0  0
  2  3  1  0  0  0
  3  4  2  0  0  0
  3 50  1  0  0  0
  4 12  1  0  0  0
  4  5  1  0  0  0
  5  7  2  0  0  0
  6  7  1  0  0  0
  6 11  1  0  0  0
  7  8  1  0  0  0
  8  9  2  0  0  0
  8 51  1  0  0  0
  9 18  1  0  0  0
  9 10  1  0  0  0
 10 11  2  0  0  0
 10 52  1  0  0  0
 11 53  1  0  0  0
 12 17  2  0  0  0
 12 13  1  0  0  0
 13 14  2  0  0  0
 13 54  1  0  0  0
 14 15  1  0  0  0
 14 55  1  0  0  0
 15 16  2  0  0  0
 15 56  1  0  0  0
 16 17  1  0  0  0
 16 57  1  0  0  0
 17 58  1  0  0  0
 18 19  1  0  0  0
 19 59  1  0  0  0
 19 60  1  0  0  0
 19 61  1  0  0  0
 20 36  1  0  0  0
 20 21  1  0  0  0
 20 62  1  0  0  0
 21 31  1  0  0  0
 21 35  2  0  0  0
 22 37  1  0  0  0
 22 23  2  0  0  0
 22 63  1  0  0  0
 23 24  1  0  0  0
 23 64  1  0  0  0
 24 26  1  0  0  0
 24 65  1  0  0  0
 24 66  1  0  0  0
 25 30  1  0  0  0
 25 27  1  0  0  0
 25 42  2  0  0  0
 26 28  1  0  0  0
 26 67  1  0  0  0
 26 68  1  0  0  0
 27 29  1  0  0  0
 27 49  1  0  0  0
 28 29  1  0  0  0
 28 69  1  0  0  0
 28 70  1  0  0  0
 29 71  1  0  0  0
 29 72  1  0  0  0
 30 31  1  0  0  0
 30 34  1  0  0  0
 30 73  1  0  0  0
 31 32  1  0  0  0
 31 74  1  0  0  0
 32 33  1  0  0  0
 32 75  1  0  0  0
 32 76  1  0  0  0
 33 34  1  0  0  0
 33 77  1  0  0  0
 34 78  1  0  0  0
 34 79  1  0  0  0
 36 37  1  0  0  0
 36 38  1  0  0  0
 36 39  1  0  0  0
 37 38  1  0  0  0
 37 80  1  0  0  0
 38 81  1  0  0  0
 38 82  1  0  0  0
 39 40  1  0  0  0
 39 41  2  0  0  0
 40 43  1  0  0  0
 43 44  2  0  0  0
 43 45  2  0  0  0
 43 46  1  0  0  0
 46 47  1  0  0  0
 46 48  1  0  0  0
 46 83  1  0  0  0
 47 48  1  0  0  0
 47 84  1  0  0  0
 47 85  1  0  0  0
 48 86  1  0  0  0
 48 87  1  0  0  0
 49 88  1  0  0  0
 49 89  1  0  0  0
 49 90  1  0  0  0
M  CHG  1  40  -1
M  END
> <chembl_id>
CHEMBL395154

> <chembl_pref_name>
None

> <i_m_ct_stereo_status>
1

> <s_m_source_file>
sdf/inactives_sanitized.sdf

> <i_m_source_file_index>
206

> <i_lp_mmshare_version>
49012

> <i_f3d_flags>
0

> <s_epik_input>
W2NIXTFbY0hdYyhPW0NIM10pW2NIXWMoYzEyKW5jKC1jM1tjSF1bY0hdW2NIXVtjSF1bY0hdMylbY0hdYzJPW0NAQEhdKFtDSDJdNClbQ0gyXVtDQEBIXShDKD1PKVtOSF01KVtDQEBIXTRDKD1PKU4oW0NIM10pW0NIMl1bQ0gyXVtDSDJdW0NIMl1cW0NIXT1bQ0hdXFtDQEhdKFtDSDJdNilbQ0BdNTZDKD1PKVtOSF1TKD1PKSg9TylbQ0hdN1tDSDJdW0NIMl03

> <s_epik_cmdline>
J2VwaWtfcHl0aG9uJywgJy1waHQnLCAnMC41JywgJy1waCcsICc3LjUnLCAnLW50JywgJy1tYScsICcyMDAnLCAnLWltYWUnLCAnPGluZmlsZS5tYWU+JywgJy1vbWFlJywgJzxvdXRmaWxlLm1hZT4n

> <r_epik_Ionization_Penalty>
  0.3165

> <r_epik_Ionization_Penalty_Charging>
  0.0027

> <r_epik_Ionization_Penalty_Neutral>
  0.3138

> <r_epik_State_Penalty>
  0.3080

> <r_epik_Charging_Adjusted_Penalty>
0.310653691257421

> <i_epik_Tot_Q>
-1

> <i_epik_Tot_abs_Q>
1

> <s_lp_Force_Field>
OPLS3e

> <r_lp_Energy>
84.47945

> <b_lp_Chiralities_Consistent>
1

> <s_lp_Variant>
sdf/inactives_sanitized.sdf:206-1

$$$$
sdf/inactives_sanitized.sdf:206
                    3D
 Schrodinger Suite 2020-1.
 91 97  0  0  1  0            999 V2000
    0.2426    0.2702   -0.1443 O   0  0  0  0  0  0
   -0.4418    1.4601    0.0434 C   0  0  0  0  0  0
    0.1816    2.6909    0.3124 C   0  0  0  0  0  0
   -0.5622    3.8619    0.4826 C   0  0  0  0  0  0
   -1.9045    3.7816    0.4038 N   0  3  0  0  0  0
   -1.8655    1.4291   -0.0442 C   0  0  0  0  0  0
   -2.6082    2.6303    0.1458 C   0  0  0  0  0  0
   -4.0178    2.6467    0.0705 C   0  0  0  0  0  0
   -4.7113    1.4573   -0.1986 C   0  0  0  0  0  0
   -3.9927    0.2762   -0.3861 C   0  0  0  0  0  0
   -2.6005    0.2454   -0.3141 C   0  0  0  0  0  0
    0.0347    5.2034    0.7686 C   0  0  0  0  0  0
   -0.6795    6.1819    1.4794 C   0  0  0  0  0  0
   -0.1152    7.4267    1.7449 C   0  0  0  0  0  0
    1.1731    7.7081    1.3019 C   0  0  0  0  0  0
    1.9001    6.7538    0.5973 C   0  0  0  0  0  0
    1.3333    5.5096    0.3346 C   0  0  0  0  0  0
   -6.0861    1.3642   -0.2957 O   0  0  0  0  0  0
   -6.8764    2.5356   -0.1220 C   0  0  0  0  0  0
    3.7307    0.1285   -4.3862 N   0  0  0  0  0  0
    4.0292    0.0258   -3.0752 C   0  0  0  0  0  0
    5.6320   -2.7920   -5.7528 C   0  0  0  0  0  0
    6.2967   -3.1143   -4.6313 C   0  0  0  0  0  0
    7.3825   -4.1600   -4.4821 C   0  0  0  0  0  0
    3.4508   -2.8053   -1.6272 C   0  0  0  0  0  0
    7.0530   -5.2797   -3.4651 C   0  0  0  0  0  0
    4.4879   -3.5632   -1.1773 N   0  0  0  0  0  0
    6.5486   -4.7816   -2.0871 C   0  0  0  0  0  0
    5.0023   -4.7019   -1.9661 C   0  0  0  0  0  0
    3.2380   -1.3706   -1.0579 C   0  0  1  0  0  0
    2.8504   -0.3321   -2.1425 C   0  0  1  0  0  0
    2.3284    0.8564   -1.3276 C   0  0  0  0  0  0
    1.6701    0.2305   -0.0704 C   0  0  2  0  0  0
    2.0840   -1.2621   -0.0522 C   0  0  0  0  0  0
    5.1855   -0.0309   -2.6497 O   0  0  0  0  0  0
    4.6408   -0.3119   -5.4505 C   0  0  1  0  0  0
    4.4747   -1.8168   -5.7076 C   0  0  1  0  0  0
    4.1531   -0.8350   -6.8000 C   0  0  0  0  0  0
    6.0075    0.4386   -5.6097 C   0  0  0  0  0  0
    6.0836    1.7136   -5.9214 N   0  5  0  0  0  0
    7.0320   -0.2166   -5.4301 O   0  0  0  0  0  0
    2.7022   -3.1945   -2.5276 O   0  0  0  0  0  0
    4.8339    2.6383   -6.1686 S   0  0  0  0  0  0
    3.9555    2.1564   -7.2408 O   0  0  0  0  0  0
    4.1820    3.0530   -4.9211 O   0  0  0  0  0  0
    5.5581    4.2589   -6.8657 C   0  0  0  0  0  0
    6.7792    4.1730   -7.7531 C   0  0  0  0  0  0
    6.8997    4.7224   -6.3452 C   0  0  0  0  0  0
    5.1258   -3.3545    0.1280 C   0  0  0  0  0  0
    1.2555    2.7483    0.3929 H   0  0  0  0  0  0
   -4.5333    3.5832    0.2220 H   0  0  0  0  0  0
   -4.5271   -0.6399   -0.5932 H   0  0  0  0  0  0
   -2.0772   -0.6880   -0.4660 H   0  0  0  0  0  0
   -1.6784    5.9829    1.8397 H   0  0  0  0  0  0
   -0.6744    8.1703    2.2937 H   0  0  0  0  0  0
    1.6117    8.6738    1.5062 H   0  0  0  0  0  0
    2.8992    6.9779    0.2534 H   0  0  0  0  0  0
    1.9134    4.7899   -0.2243 H   0  0  0  0  0  0
   -7.9298    2.2789   -0.2345 H   0  0  0  0  0  0
   -6.6404    3.2927   -0.8715 H   0  0  0  0  0  0
   -6.7455    2.9628    0.8734 H   0  0  0  0  0  0
    2.7764    0.3083   -4.6611 H   0  0  0  0  0  0
    5.8533   -3.2716   -6.6950 H   0  0  0  0  0  0
    6.0203   -2.6060   -3.7184 H   0  0  0  0  0  0
    7.6121   -4.6027   -5.4525 H   0  0  0  0  0  0
    8.2953   -3.6500   -4.1722 H   0  0  0  0  0  0
    6.3283   -5.9711   -3.8976 H   0  0  0  0  0  0
    7.9576   -5.8706   -3.3152 H   0  0  0  0  0  0
    6.9145   -5.4453   -1.3031 H   0  0  0  0  0  0
    7.0118   -3.8173   -1.8727 H   0  0  0  0  0  0
    4.6182   -5.6274   -1.5360 H   0  0  0  0  0  0
    4.5865   -4.6526   -2.9737 H   0  0  0  0  0  0
    4.1640   -1.0640   -0.5680 H   0  0  0  0  0  0
    2.0471   -0.7244   -2.7724 H   0  0  0  0  0  0
    3.1245    1.5429   -1.0323 H   0  0  0  0  0  0
    1.6099    1.4110   -1.9333 H   0  0  0  0  0  0
    2.0188    0.6939    0.8547 H   0  0  0  0  0  0
    2.4002   -1.5725    0.9446 H   0  0  0  0  0  0
    1.2485   -1.9040   -0.3425 H   0  0  0  0  0  0
    3.5873   -2.2811   -5.2732 H   0  0  0  0  0  0
    4.8066   -0.8898   -7.6724 H   0  0  0  0  0  0
    3.1011   -0.7461   -7.0716 H   0  0  0  0  0  0
    4.7772    4.9872   -7.0821 H   0  0  0  0  0  0
    7.2010    3.1945   -7.9832 H   0  0  0  0  0  0
    6.8487    4.8587   -8.5975 H   0  0  0  0  0  0
    7.4064    4.1311   -5.5822 H   0  0  0  0  0  0
    7.0525    5.7922   -6.2042 H   0  0  0  0  0  0
    4.5570   -2.6958    0.7841 H   0  0  0  0  0  0
    6.1242   -2.9336    0.0089 H   0  0  0  0  0  0
    5.2213   -4.3075    0.6492 H   0  0  0  0  0  0
   -2.4280    4.6347    0.5358 H   0  0  0  0  0  0
  1  2  1  0  0  0
  1 33  1  0  0  0
  2  6  2  0  0  0
  2  3  1  0  0  0
  3  4  2  0  0  0
  3 50  1  0  0  0
  4 12  1  0  0  0
  4  5  1  0  0  0
  5  7  2  0  0  0
  5 91  1  0  0  0
  6  7  1  0  0  0
  6 11  1  0  0  0
  7  8  1  0  0  0
  8  9  2  0  0  0
  8 51  1  0  0  0
  9 18  1  0  0  0
  9 10  1  0  0  0
 10 11  2  0  0  0
 10 52  1  0  0  0
 11 53  1  0  0  0
 12 17  2  0  0  0
 12 13  1  0  0  0
 13 14  2  0  0  0
 13 54  1  0  0  0
 14 15  1  0  0  0
 14 55  1  0  0  0
 15 16  2  0  0  0
 15 56  1  0  0  0
 16 17  1  0  0  0
 16 57  1  0  0  0
 17 58  1  0  0  0
 18 19  1  0  0  0
 19 59  1  0  0  0
 19 60  1  0  0  0
 19 61  1  0  0  0
 20 36  1  0  0  0
 20 21  1  0  0  0
 20 62  1  0  0  0
 21 31  1  0  0  0
 21 35  2  0  0  0
 22 37  1  0  0  0
 22 23  2  0  0  0
 22 63  1  0  0  0
 23 24  1  0  0  0
 23 64  1  0  0  0
 24 26  1  0  0  0
 24 65  1  0  0  0
 24 66  1  0  0  0
 25 30  1  0  0  0
 25 27  1  0  0  0
 25 42  2  0  0  0
 26 28  1  0  0  0
 26 67  1  0  0  0
 26 68  1  0  0  0
 27 29  1  0  0  0
 27 49  1  0  0  0
 28 29  1  0  0  0
 28 69  1  0  0  0
 28 70  1  0  0  0
 29 71  1  0  0  0
 29 72  1  0  0  0
 30 31  1  0  0  0
 30 34  1  0  0  0
 30 73  1  0  0  0
 31 32  1  0  0  0
 31 74  1  0  0  0
 32 33  1  0  0  0
 32 75  1  0  0  0
 32 76  1  0  0  0
 33 34  1  0  0  0
 33 77  1  0  0  0
 34 78  1  0  0  0
 34 79  1  0  0  0
 36 37  1  0  0  0
 36 38  1  0  0  0
 36 39  1  0  0  0
 37 38  1  0  0  0
 37 80  1  0  0  0
 38 81  1  0  0  0
 38 82  1  0  0  0
 39 40  1  0  0  0
 39 41  2  0  0  0
 40 43  1  0  0  0
 43 44  2  0  0  0
 43 45  2  0  0  0
 43 46  1  0  0  0
 46 47  1  0  0  0
 46 48  1  0  0  0
 46 83  1  0  0  0
 47 48  1  0  0  0
 47 84  1  0  0  0
 47 85  1  0  0  0
 48 86  1  0  0  0
 48 87  1  0  0  0
 49 88  1  0  0  0
 49 89  1  0  0  0
 49 90  1  0  0  0
M  CHG  2   5   1  40  -1
M  END
> <chembl_id>
CHEMBL395154

> <chembl_pref_name>
None

> <i_m_ct_stereo_status>
1

> <s_m_source_file>
sdf/inactives_sanitized.sdf

> <i_m_source_file_index>
206

> <i_lp_mmshare_version>
49012

> <i_f3d_flags>
0

> <s_epik_input>
W2NIXTFbY0hdYyhPW0NIM10pW2NIXWMoYzEyKW5jKC1jM1tjSF1bY0hdW2NIXVtjSF1bY0hdMylbY0hdYzJPW0NAQEhdKFtDSDJdNClbQ0gyXVtDQEBIXShDKD1PKVtOSF01KVtDQEBIXTRDKD1PKU4oW0NIM10pW0NIMl1bQ0gyXVtDSDJdW0NIMl1cW0NIXT1bQ0hdXFtDQEhdKFtDSDJdNilbQ0BdNTZDKD1PKVtOSF1TKD1PKSg9TylbQ0hdN1tDSDJdW0NIMl03

> <s_epik_cmdline>
J2VwaWtfcHl0aG9uJywgJy1waHQnLCAnMC41JywgJy1waCcsICc3LjUnLCAnLW50JywgJy1tYScsICcyMDAnLCAnLWltYWUnLCAnPGluZmlsZS5tYWU+JywgJy1vbWFlJywgJzxvdXRmaWxlLm1hZT4n

> <r_epik_Ionization_Penalty>
  0.5292

> <r_epik_Ionization_Penalty_Charging>
  0.5292

> <r_epik_Ionization_Penalty_Neutral>
  0.0000

> <r_epik_State_Penalty>
  0.5350

> <r_epik_Charging_Adjusted_Penalty>
1.06425577037901

> <i_epik_Tot_Q>
0

> <i_epik_Tot_abs_Q>
2

> <s_lp_Force_Field>
OPLS3e

> <r_lp_Energy>
86.597089

> <b_lp_Chiralities_Consistent>
1

> <s_lp_Variant>
sdf/inactives_sanitized.sdf:206-2

$$$$
sdf/inactives_sanitized.sdf:207
                    3D
 Schrodinger Suite 2020-1.
 45 47  0  0  1  0            999 V2000
   -1.3594    5.7482    2.2159 C   0  0  0  0  0  0
   -1.9523    6.2759    1.0784 C   0  0  0  0  0  0
   -2.0459    5.4782   -0.0560 C   0  0  0  0  0  0
   -0.8594    4.4934    2.2794 N   0  0  0  0  0  0
   -0.9327    3.6825    1.1752 C   0  0  0  0  0  0
   -1.5430    4.1447   -0.0382 C   0  0  0  0  0  0
   -1.6089    3.2725   -1.1663 C   0  0  0  0  0  0
   -1.0542    1.9984   -1.0753 C   0  0  0  0  0  0
   -0.4471    1.5351    0.0884 C   0  0  0  0  0  0
   -0.3875    2.3569    1.2264 C   0  0  0  0  0  0
    0.1540    1.9153    2.2964 O   0  5  0  0  0  0
   -2.2464    3.6738   -2.4337 N   0  3  0  0  0  0
   -1.5917    3.5536   -3.4646 O   0  0  0  0  0  0
   -3.4058    4.0732   -2.3983 O   0  5  0  0  0  0
    0.1327    0.1155    0.0734 C   0  0  0  0  0  0
    1.5996    0.0940    0.0147 N   0  0  0  0  0  0
    2.1043    0.6148   -1.2608 C   0  0  0  0  0  0
    3.6476    0.6656   -1.2914 C   0  0  0  0  0  0
    4.1955   -0.6475   -0.8853 N   0  0  0  0  0  0
    3.6196   -1.3466    0.2793 C   0  0  0  0  0  0
    2.0773   -1.2757    0.2208 C   0  0  0  0  0  0
    5.4672   -1.0688   -1.3207 C   0  0  0  0  0  0
    6.0203   -0.1990   -2.2092 O   0  0  0  0  0  0
    6.0271   -2.1127   -0.9713 O   0  0  0  0  0  0
    7.2982   -0.4436   -2.7827 C   0  0  0  0  0  0
    7.6665    0.7171   -3.7121 C   0  0  0  0  0  0
   -1.2709    6.3429    3.1130 H   0  0  0  0  0  0
   -2.3319    7.2870    1.0735 H   0  0  0  0  0  0
   -2.4964    5.8840   -0.9487 H   0  0  0  0  0  0
   -1.0997    1.3485   -1.9380 H   0  0  0  0  0  0
   -0.2050   -0.3875    0.9815 H   0  0  0  0  0  0
   -0.2853   -0.4572   -0.7572 H   0  0  0  0  0  0
    1.7477   -0.0444   -2.0551 H   0  0  0  0  0  0
    1.7113    1.6129   -1.4547 H   0  0  0  0  0  0
    3.9520    0.9525   -2.2983 H   0  0  0  0  0  0
    4.0098    1.4301   -0.6029 H   0  0  0  0  0  0
    3.9155   -2.3962    0.3171 H   0  0  0  0  0  0
    3.9790   -0.8695    1.1919 H   0  0  0  0  0  0
    1.6572   -1.6910    1.1381 H   0  0  0  0  0  0
    1.7213   -1.8824   -0.6149 H   0  0  0  0  0  0
    8.0487   -0.5432   -1.9966 H   0  0  0  0  0  0
    7.2812   -1.3796   -3.3435 H   0  0  0  0  0  0
    8.6418    0.5520   -4.1698 H   0  0  0  0  0  0
    7.7106    1.6603   -3.1662 H   0  0  0  0  0  0
    6.9368    0.8269   -4.5150 H   0  0  0  0  0  0
  1  2  2  0  0  0
  1  4  1  0  0  0
  1 27  1  0  0  0
  2  3  1  0  0  0
  2 28  1  0  0  0
  3  6  2  0  0  0
  3 29  1  0  0  0
  4  5  2  0  0  0
  5  6  1  0  0  0
  5 10  1  0  0  0
  6  7  1  0  0  0
  7  8  2  0  0  0
  7 12  1  0  0  0
  8  9  1  0  0  0
  8 30  1  0  0  0
  9 10  2  0  0  0
  9 15  1  0  0  0
 10 11  1  0  0  0
 12 13  2  0  0  0
 12 14  1  0  0  0
 15 16  1  0  0  0
 15 31  1  0  0  0
 15 32  1  0  0  0
 16 17  1  0  0  0
 16 21  1  0  0  0
 17 18  1  0  0  0
 17 33  1  0  0  0
 17 34  1  0  0  0
 18 19  1  0  0  0
 18 35  1  0  0  0
 18 36  1  0  0  0
 19 20  1  0  0  0
 19 22  1  0  0  0
 20 21  1  0  0  0
 20 37  1  0  0  0
 20 38  1  0  0  0
 21 39  1  0  0  0
 21 40  1  0  0  0
 22 23  1  0  0  0
 22 24  2  0  0  0
 23 25  1  0  0  0
 25 26  1  0  0  0
 25 41  1  0  0  0
 25 42  1  0  0  0
 26 43  1  0  0  0
 26 44  1  0  0  0
 26 45  1  0  0  0
M  CHG  3  11  -1  12   1  14  -1
M  END
> <chembl_id>
CHEMBL2312218

> <chembl_pref_name>
None

> <s_m_source_file>
sdf/inactives_sanitized.sdf

> <i_m_source_file_index>
207

> <i_lp_mmshare_version>
49012

> <i_m_ct_stereo_status>
1

> <i_f3d_flags>
0

> <s_epik_input>
bjFbY0hdW2NIXVtjSF1jKGMxMiljKFtOK10oPU8pW08tXSlbY0hdYyhjMltPSF0pW0NIMl1OM1tDSDJdW0NIMl1OKFtDSDJdW0NIMl0zKUMoPU8pT1tDSDJdW0NIM10=

> <s_epik_cmdline>
J2VwaWtfcHl0aG9uJywgJy1waHQnLCAnMC41JywgJy1waCcsICc3LjUnLCAnLW50JywgJy1tYScsICcyMDAnLCAnLWltYWUnLCAnPGluZmlsZS5tYWU+JywgJy1vbWFlJywgJzxvdXRmaWxlLm1hZT4n

> <r_epik_Ionization_Penalty>
  0.3099

> <r_epik_Ionization_Penalty_Charging>
  0.0012

> <r_epik_Ionization_Penalty_Neutral>
  0.3088

> <r_epik_State_Penalty>
  0.3027

> <r_epik_Charging_Adjusted_Penalty>
0.303826934463588

> <i_epik_Tot_Q>
-1

> <i_epik_Tot_abs_Q>
3

> <s_epik_Chemistry_Notes>
This compound has an ester and may undergo hydrolysis at high or low pH.

> <s_lp_Force_Field>
OPLS3e

> <r_lp_Energy>
56.227283

> <b_lp_Chiralities_Consistent>
1

> <s_lp_Variant>
sdf/inactives_sanitized.sdf:207-1

$$$$
sdf/inactives_sanitized.sdf:207
                    3D
 Schrodinger Suite 2020-1.
 46 48  0  0  1  0            999 V2000
   -2.7795    4.1568    2.7654 C   0  0  0  0  0  0
   -2.5527    5.3685    2.1294 C   0  0  0  0  0  0
   -1.8797    5.3674    0.9130 C   0  0  0  0  0  0
   -2.3709    2.9680    2.2669 N   0  0  0  0  0  0
   -1.7012    2.9339    1.0702 C   0  0  0  0  0  0
   -1.4394    4.1397    0.3385 C   0  0  0  0  0  0
   -0.7461    4.0669   -0.9072 C   0  0  0  0  0  0
   -0.3168    2.8279   -1.3767 C   0  0  0  0  0  0
   -0.5510    1.6479   -0.6772 C   0  0  0  0  0  0
   -1.2475    1.6800    0.5429 C   0  0  0  0  0  0
   -1.4554    0.5919    1.1787 O   0  5  0  0  0  0
   -0.4664    5.2638   -1.7215 N   0  3  0  0  0  0
    0.6948    5.4603   -2.0654 O   0  0  0  0  0  0
   -1.4093    5.9808   -2.0405 O   0  5  0  0  0  0
   -0.0378    0.3457   -1.2995 C   0  0  0  0  0  0
    1.4829    0.1213   -1.1345 N   0  3  0  0  0  0
    1.9215   -1.1501   -1.8976 C   0  0  0  0  0  0
    3.4496   -1.3340   -1.7527 C   0  0  0  0  0  0
    3.7532   -1.4109   -0.3092 N   0  0  0  0  0  0
    3.4133   -0.2092    0.4723 C   0  0  0  0  0  0
    1.8871    0.0191    0.3564 C   0  0  0  0  0  0
    3.7708   -2.6483    0.3650 C   0  0  0  0  0  0
    3.9431   -3.6877   -0.4933 O   0  0  0  0  0  0
    3.6678   -2.7934    1.5867 O   0  0  0  0  0  0
    4.0072   -5.0277   -0.0217 C   0  0  0  0  0  0
    4.1998   -5.9746   -1.2101 C   0  0  0  0  0  0
   -3.3017    4.1243    3.7102 H   0  0  0  0  0  0
   -2.8913    6.2943    2.5708 H   0  0  0  0  0  0
   -1.6909    6.3065    0.4156 H   0  0  0  0  0  0
    0.2118    2.7829   -2.3188 H   0  0  0  0  0  0
   -0.5182   -0.5486   -0.8987 H   0  0  0  0  0  0
   -0.2038    0.3563   -2.3783 H   0  0  0  0  0  0
    1.3519   -1.9966   -1.5081 H   0  0  0  0  0  0
    1.6449   -0.9913   -2.9407 H   0  0  0  0  0  0
    3.8298   -2.1789   -2.3277 H   0  0  0  0  0  0
    3.9319   -0.4441   -2.1598 H   0  0  0  0  0  0
    3.7476   -0.2725    1.5093 H   0  0  0  0  0  0
    3.9157    0.6525    0.0311 H   0  0  0  0  0  0
    1.6104    0.9681    0.8163 H   0  0  0  0  0  0
    1.2983   -0.7752    0.8196 H   0  0  0  0  0  0
    4.8361   -5.1372    0.6795 H   0  0  0  0  0  0
    3.0892   -5.2803    0.5113 H   0  0  0  0  0  0
    4.2532   -7.0105   -0.8746 H   0  0  0  0  0  0
    5.1226   -5.7518   -1.7464 H   0  0  0  0  0  0
    3.3724   -5.8952   -1.9159 H   0  0  0  0  0  0
    1.9700    0.9074   -1.5409 H   0  0  0  0  0  0
  1  2  2  0  0  0
  1  4  1  0  0  0
  1 27  1  0  0  0
  2  3  1  0  0  0
  2 28  1  0  0  0
  3  6  2  0  0  0
  3 29  1  0  0  0
  4  5  2  0  0  0
  5  6  1  0  0  0
  5 10  1  0  0  0
  6  7  1  0  0  0
  7  8  2  0  0  0
  7 12  1  0  0  0
  8  9  1  0  0  0
  8 30  1  0  0  0
  9 10  2  0  0  0
  9 15  1  0  0  0
 10 11  1  0  0  0
 12 13  2  0  0  0
 12 14  1  0  0  0
 15 16  1  0  0  0
 15 31  1  0  0  0
 15 32  1  0  0  0
 16 17  1  0  0  0
 16 21  1  0  0  0
 16 46  1  0  0  0
 17 18  1  0  0  0
 17 33  1  0  0  0
 17 34  1  0  0  0
 18 19  1  0  0  0
 18 35  1  0  0  0
 18 36  1  0  0  0
 19 20  1  0  0  0
 19 22  1  0  0  0
 20 21  1  0  0  0
 20 37  1  0  0  0
 20 38  1  0  0  0
 21 39  1  0  0  0
 21 40  1  0  0  0
 22 23  1  0  0  0
 22 24  2  0  0  0
 23 25  1  0  0  0
 25 26  1  0  0  0
 25 41  1  0  0  0
 25 42  1  0  0  0
 26 43  1  0  0  0
 26 44  1  0  0  0
 26 45  1  0  0  0
M  CHG  4  11  -1  12   1  14  -1  16   1
M  END
> <chembl_id>
CHEMBL2312218

> <chembl_pref_name>
None

> <s_m_source_file>
sdf/inactives_sanitized.sdf

> <i_m_source_file_index>
207

> <i_lp_mmshare_version>
49012

> <i_m_ct_stereo_status>
1

> <i_f3d_flags>
0

> <s_epik_input>
bjFbY0hdW2NIXVtjSF1jKGMxMiljKFtOK10oPU8pW08tXSlbY0hdYyhjMltPSF0pW0NIMl1OM1tDSDJdW0NIMl1OKFtDSDJdW0NIMl0zKUMoPU8pT1tDSDJdW0NIM10=

> <s_epik_cmdline>
J2VwaWtfcHl0aG9uJywgJy1waHQnLCAnMC41JywgJy1waCcsICc3LjUnLCAnLW50JywgJy1tYScsICcyMDAnLCAnLWltYWUnLCAnPGluZmlsZS5tYWU+JywgJy1vbWFlJywgJzxvdXRmaWxlLm1hZT4n

> <r_epik_Ionization_Penalty>
  0.5339

> <r_epik_Ionization_Penalty_Charging>
  0.5339

> <r_epik_Ionization_Penalty_Neutral>
  0.0000

> <r_epik_State_Penalty>
  0.5429

> <r_epik_Charging_Adjusted_Penalty>
1.07674153412125

> <i_epik_Tot_Q>
0

> <i_epik_Tot_abs_Q>
4

> <s_epik_Chemistry_Notes>
This compound has an ester and may undergo hydrolysis at high or low pH.

> <s_lp_Force_Field>
OPLS3e

> <r_lp_Energy>
45.6956

> <b_lp_Chiralities_Consistent>
1

> <s_lp_Variant>
sdf/inactives_sanitized.sdf:207-2

$$$$
sdf/inactives_sanitized.sdf:208
                    3D
 Schrodinger Suite 2020-1.
 77 79  0  0  1  0            999 V2000
   -2.9881    2.5067    3.6269 N   0  0  0  0  0  0
   -2.4694    1.6153    2.7355 C   0  0  0  0  0  0
   -2.5016    2.0202    1.4481 N   0  0  0  0  0  0
   -1.9033    0.5724    3.0761 O   0  0  0  0  0  0
   -1.8999    1.3223    0.3073 C   0  0  2  0  0  0
   -0.3565    1.3056    0.3834 C   0  0  0  0  0  0
   -2.4293    1.9421   -1.0132 C   0  0  0  0  0  0
    0.2657    2.3685    0.4242 O   0  0  0  0  0  0
    0.2207    0.0913    0.3395 N   0  0  0  0  0  0
    1.6635   -0.1729    0.2797 C   0  0  2  0  0  0
    1.9811   -0.3290   -1.2045 C   0  0  0  0  0  0
    2.0454   -1.4516    1.0637 C   0  0  0  0  0  0
    1.7663   -1.3516    2.5777 C   0  0  0  0  0  0
    1.4585   -1.2231   -1.8779 O   0  0  0  0  0  0
    2.9244    0.6288   -1.7811 C   0  0  0  0  0  0
    3.2359    0.6538   -3.0947 C   0  0  0  0  0  0
    4.1568    1.5983   -3.7038 C   0  0  0  0  0  0
   -1.8755    1.3425   -2.2988 C   0  0  0  0  0  0
   -0.7590    1.9264   -2.9362 C   0  0  0  0  0  0
   -0.1867    1.3097   -4.0404 C   0  0  0  0  0  0
   -0.6915    0.1026   -4.5066 C   0  0  0  0  0  0
   -1.7688   -0.5012   -3.8698 C   0  0  0  0  0  0
   -2.3565    0.1008   -2.7649 C   0  0  0  0  0  0
    2.1782   -2.6042    3.3360 C   0  0  0  0  0  0
    3.4698   -2.7099    3.8591 C   0  0  0  0  0  0
    3.8478   -3.8586    4.5494 C   0  0  0  0  0  0
    2.9335   -4.8973    4.7131 C   0  0  0  0  0  0
    1.6446   -4.7986    4.1926 C   0  0  0  0  0  0
    1.2659   -3.6497    3.5028 C   0  0  0  0  0  0
   -4.1348    3.3740    3.2815 C   0  0  0  0  0  0
   -5.4173    2.5957    3.6588 C   0  0  0  0  0  0
   -5.3872    2.2498    5.0440 O   0  0  0  0  0  0
   -4.2602    1.4531    5.4125 C   0  0  0  0  0  0
   -2.9436    2.1922    5.0676 C   0  0  0  0  0  0
    4.3030    2.8824   -3.3134 C   0  0  0  0  0  0
    5.2474    3.7984   -3.9441 C   0  0  0  0  0  0
    5.2303    5.0156   -3.3577 O   0  0  0  0  0  0
    5.9694    3.4903   -4.8971 O   0  0  0  0  0  0
    6.0771    6.0603   -3.8207 C   0  0  0  0  0  0
    5.8623    7.3108   -2.9627 C   0  0  0  0  0  0
   -2.9783    2.8809    1.2239 H   0  0  0  0  0  0
   -2.2512    0.2877    0.3329 H   0  0  0  0  0  0
   -3.5153    1.8392   -1.0430 H   0  0  0  0  0  0
   -2.2392    3.0171   -1.0266 H   0  0  0  0  0  0
   -0.3699   -0.7275    0.3127 H   0  0  0  0  0  0
    2.2162    0.6615    0.7183 H   0  0  0  0  0  0
    1.5106   -2.3200    0.6724 H   0  0  0  0  0  0
    3.1035   -1.6784    0.9179 H   0  0  0  0  0  0
    2.2843   -0.4887    2.9995 H   0  0  0  0  0  0
    0.7073   -1.1592    2.7590 H   0  0  0  0  0  0
    3.3747    1.3361   -1.0992 H   0  0  0  0  0  0
    2.7700   -0.0592   -3.7613 H   0  0  0  0  0  0
    4.7648    1.2209   -4.5149 H   0  0  0  0  0  0
   -0.3407    2.8498   -2.5630 H   0  0  0  0  0  0
    0.6636    1.7627   -4.5286 H   0  0  0  0  0  0
   -0.2352   -0.3759   -5.3606 H   0  0  0  0  0  0
   -2.1433   -1.4485   -4.2288 H   0  0  0  0  0  0
   -3.1778   -0.3873   -2.2607 H   0  0  0  0  0  0
    4.1797   -1.9057    3.7308 H   0  0  0  0  0  0
    4.8451   -3.9441    4.9551 H   0  0  0  0  0  0
    3.2269   -5.7881    5.2484 H   0  0  0  0  0  0
    0.9428   -5.6091    4.3235 H   0  0  0  0  0  0
    0.2670   -3.5737    3.0985 H   0  0  0  0  0  0
   -4.0346    4.2352    3.9436 H   0  0  0  0  0  0
   -4.1117    3.8082    2.2815 H   0  0  0  0  0  0
   -6.2973    3.2057    3.4557 H   0  0  0  0  0  0
   -5.5271    1.6980    3.0473 H   0  0  0  0  0  0
   -4.2994    1.2459    6.4817 H   0  0  0  0  0  0
   -4.3082    0.4821    4.9151 H   0  0  0  0  0  0
   -2.0231    1.7048    5.3925 H   0  0  0  0  0  0
   -2.9341    3.1649    5.5615 H   0  0  0  0  0  0
    3.7092    3.2807   -2.5020 H   0  0  0  0  0  0
    7.1211    5.7474   -3.7659 H   0  0  0  0  0  0
    5.8554    6.2838   -4.8656 H   0  0  0  0  0  0
    6.4974    8.1279   -3.3048 H   0  0  0  0  0  0
    6.1036    7.1182   -1.9169 H   0  0  0  0  0  0
    4.8275    7.6512   -3.0126 H   0  0  0  0  0  0
  1  2  1  0  0  0
  1 30  1  0  0  0
  1 34  1  0  0  0
  2  3  1  0  0  0
  2  4  2  0  0  0
  3  5  1  0  0  0
  3 41  1  0  0  0
  5  6  1  0  0  0
  5  7  1  0  0  0
  5 42  1  0  0  0
  6  8  2  0  0  0
  6  9  1  0  0  0
  7 18  1  0  0  0
  7 43  1  0  0  0
  7 44  1  0  0  0
  9 10  1  0  0  0
  9 45  1  0  0  0
 10 11  1  0  0  0
 10 12  1  0  0  0
 10 46  1  0  0  0
 11 14  2  0  0  0
 11 15  1  0  0  0
 12 13  1  0  0  0
 12 47  1  0  0  0
 12 48  1  0  0  0
 13 24  1  0  0  0
 13 49  1  0  0  0
 13 50  1  0  0  0
 15 16  2  0  0  0
 15 51  1  0  0  0
 16 17  1  0  0  0
 16 52  1  0  0  0
 17 35  2  0  0  0
 17 53  1  0  0  0
 18 19  2  0  0  0
 18 23  1  0  0  0
 19 20  1  0  0  0
 19 54  1  0  0  0
 20 21  2  0  0  0
 20 55  1  0  0  0
 21 22  1  0  0  0
 21 56  1  0  0  0
 22 23  2  0  0  0
 22 57  1  0  0  0
 23 58  1  0  0  0
 24 25  2  0  0  0
 24 29  1  0  0  0
 25 26  1  0  0  0
 25 59  1  0  0  0
 26 27  2  0  0  0
 26 60  1  0  0  0
 27 28  1  0  0  0
 27 61  1  0  0  0
 28 29  2  0  0  0
 28 62  1  0  0  0
 29 63  1  0  0  0
 30 31  1  0  0  0
 30 64  1  0  0  0
 30 65  1  0  0  0
 31 32  1  0  0  0
 31 66  1  0  0  0
 31 67  1  0  0  0
 32 33  1  0  0  0
 33 34  1  0  0  0
 33 68  1  0  0  0
 33 69  1  0  0  0
 34 70  1  0  0  0
 34 71  1  0  0  0
 35 36  1  0  0  0
 35 72  1  0  0  0
 36 37  1  0  0  0
 36 38  2  0  0  0
 37 39  1  0  0  0
 39 40  1  0  0  0
 39 73  1  0  0  0
 39 74  1  0  0  0
 40 75  1  0  0  0
 40 76  1  0  0  0
 40 77  1  0  0  0
M  END
> <chembl_id>
CHEMBL4244085

> <chembl_pref_name>
None

> <i_m_ct_stereo_status>
1

> <s_m_source_file>
sdf/inactives_sanitized.sdf

> <i_m_source_file_index>
208

> <i_lp_mmshare_version>
49012

> <i_f3d_flags>
0

> <s_epik_input>
W0NIMl0xW0NIMl1PW0NIMl1bQ0gyXU4xQyg9TylbTkhdW0NAQEhdKFtDSDJdYzJbY0hdW2NIXVtjSF1bY0hdW2NIXTIpQyg9TylbTkhdW0NAQEhdKFtDSDJdW0NIMl1jM1tjSF1bY0hdW2NIXVtjSF1bY0hdMylDKD1PKS9bQ0hdPVtDSF0vW0NIXT1bQ0hdL0MoPU8pT1tDSDJdW0NIM10=

> <s_epik_cmdline>
J2VwaWtfcHl0aG9uJywgJy1waHQnLCAnMC41JywgJy1waCcsICc3LjUnLCAnLW50JywgJy1tYScsICcyMDAnLCAnLWltYWUnLCAnPGluZmlsZS5tYWU+JywgJy1vbWFlJywgJzxvdXRmaWxlLm1hZT4n

> <r_lp_tautomer_probability>
1

> <r_epik_Ionization_Penalty>
  0.0000

> <r_epik_Ionization_Penalty_Charging>
  0.0000

> <r_epik_Ionization_Penalty_Neutral>
  0.0000

> <r_epik_State_Penalty>
 -0.0000

> <r_epik_Charging_Adjusted_Penalty>
0

> <i_epik_Tot_Q>
0

> <i_epik_Tot_abs_Q>
0

> <s_epik_Chemistry_Notes>
This compound has an ester and may undergo hydrolysis at high or low pH.

> <s_lp_Force_Field>
OPLS3e

> <r_lp_Energy>
48.916176

> <b_lp_Chiralities_Consistent>
1

> <s_lp_Variant>
sdf/inactives_sanitized.sdf:208-1

$$$$
sdf/inactives_sanitized.sdf:209
                    3D
 Schrodinger Suite 2020-1.
 29 30  0  0  1  0            999 V2000
    0.0494    0.1393   -0.0745 C   0  0  0  0  0  0
   -0.5948   -0.9020   -0.2161 O   0  0  0  0  0  0
   -1.5189    3.4386   -1.4853 O   0  0  0  0  0  0
   -0.1057    3.2659   -1.3610 C   0  0  0  0  0  0
    0.2354    2.6279    0.0042 C   0  0  0  0  0  0
   -0.5214    1.3653    0.0642 N   0  0  0  0  0  0
   -1.9811    1.5318   -0.0206 C   0  0  0  0  0  0
   -2.2559    2.2184   -1.3794 C   0  0  0  0  0  0
    1.5551    0.0553   -0.0142 C   0  0  0  0  0  0
    2.2594   -0.0257    1.2047 C   0  0  0  0  0  0
    3.6515   -0.1278    1.1877 C   0  0  0  0  0  0
    4.3461   -0.1556   -0.0194 C   0  0  0  0  0  0
    3.6639   -0.0871   -1.2413 C   0  0  0  0  0  0
    2.2651    0.0093   -1.2202 C   0  0  0  0  0  0
    4.4038   -0.1156   -2.5266 N   0  3  0  0  0  0
    3.7669   -0.0460   -3.5742 O   0  0  0  0  0  0
    5.6281   -0.2049   -2.4985 O   0  5  0  0  0  0
    1.6794    0.0001    2.3392 O   0  5  0  0  0  0
    0.2741    2.6537   -2.1816 H   0  0  0  0  0  0
    0.3900    4.2321   -1.4549 H   0  0  0  0  0  0
    1.2945    2.5673    0.2557 H   0  0  0  0  0  0
   -0.1957    3.2374    0.7992 H   0  0  0  0  0  0
   -2.5591    0.6283    0.1790 H   0  0  0  0  0  0
   -2.2255    2.2203    0.7893 H   0  0  0  0  0  0
   -2.0020    1.5544   -2.2081 H   0  0  0  0  0  0
   -3.3204    2.4302   -1.4791 H   0  0  0  0  0  0
    4.2077   -0.1856    2.1130 H   0  0  0  0  0  0
    5.4232   -0.2322    0.0063 H   0  0  0  0  0  0
    1.7208    0.0574   -2.1535 H   0  0  0  0  0  0
  1  2  2  0  0  0
  1  6  1  0  0  0
  1  9  1  0  0  0
  3  4  1  0  0  0
  3  8  1  0  0  0
  4  5  1  0  0  0
  4 19  1  0  0  0
  4 20  1  0  0  0
  5  6  1  0  0  0
  5 21  1  0  0  0
  5 22  1  0  0  0
  6  7  1  0  0  0
  7  8  1  0  0  0
  7 23  1  0  0  0
  7 24  1  0  0  0
  8 25  1  0  0  0
  8 26  1  0  0  0
  9 10  2  0  0  0
  9 14  1  0  0  0
 10 11  1  0  0  0
 10 18  1  0  0  0
 11 12  2  0  0  0
 11 27  1  0  0  0
 12 13  1  0  0  0
 12 28  1  0  0  0
 13 14  2  0  0  0
 13 15  1  0  0  0
 14 29  1  0  0  0
 15 16  2  0  0  0
 15 17  1  0  0  0
M  CHG  3  15   1  17  -1  18  -1
M  END
> <chembl_id>
CHEMBL4227257

> <chembl_pref_name>
None

> <s_m_source_file>
sdf/inactives_sanitized.sdf

> <i_m_source_file_index>
209

> <i_lp_mmshare_version>
49012

> <i_m_ct_stereo_status>
1

> <i_f3d_flags>
0

> <s_epik_input>
W0NIMl0xW0NIMl1PW0NIMl1bQ0gyXU4xQyg9TyljMmMoW09IXSlbY0hdW2NIXWMoW2NIXTIpW04rXSg9TylbTy1d

> <s_epik_cmdline>
J2VwaWtfcHl0aG9uJywgJy1waHQnLCAnMC41JywgJy1waCcsICc3LjUnLCAnLW50JywgJy1tYScsICcyMDAnLCAnLWltYWUnLCAnPGluZmlsZS5tYWU+JywgJy1vbWFlJywgJzxvdXRmaWxlLm1hZT4n

> <r_lp_tautomer_probability>
1

> <r_epik_Ionization_Penalty>
  0.0018

> <r_epik_Ionization_Penalty_Charging>
  0.0018

> <r_epik_Ionization_Penalty_Neutral>
  0.0000

> <r_epik_State_Penalty>
 -0.0000

> <r_epik_Charging_Adjusted_Penalty>
0.0017871605049816

> <i_epik_Tot_Q>
-1

> <i_epik_Tot_abs_Q>
3

> <s_lp_Force_Field>
OPLS3e

> <r_lp_Energy>
26.965891

> <b_lp_Chiralities_Consistent>
1

> <s_lp_Variant>
sdf/inactives_sanitized.sdf:209-1

$$$$
sdf/inactives_sanitized.sdf:210
                    3D
 Schrodinger Suite 2020-1.
 30 32  0  0  1  0            999 V2000
    0.0208    2.3846    0.1981 N   0  0  0  0  0  0
   -0.6335    3.5588    0.3499 C   0  0  0  0  0  0
   -2.0172    3.6657    0.3557 C   0  0  0  0  0  0
   -2.7774    2.5128    0.1918 C   0  0  0  0  0  0
   -2.1363    1.2520    0.0156 C   0  0  0  0  0  0
   -2.8499    0.0240   -0.1578 C   0  0  0  0  0  0
   -2.1331   -1.1658   -0.2848 C   0  0  0  0  0  0
   -0.7461   -1.1807   -0.2625 C   0  0  0  0  0  0
   -0.0086   -0.0076   -0.1051 C   0  0  0  0  0  0
   -0.7011    1.2351    0.0334 C   0  0  0  0  0  0
   -4.3231   -0.0293   -0.2101 N   0  3  0  0  0  0
   -4.8921   -0.8224    0.5334 O   0  0  0  0  0  0
   -4.9021    0.6952   -1.0132 O   0  5  0  0  0  0
    1.4868   -0.1109   -0.1101 C   0  0  0  0  0  0
    2.4007    0.5651   -0.9155 C   0  0  0  0  0  0
    3.6883    0.1578   -0.5719 C   0  0  0  0  0  0
    3.5558   -0.7601    0.4515 C   0  0  0  0  0  0
    2.2197   -0.9333    0.7318 N   0  0  0  0  0  0
    1.7002   -1.7867    1.7915 C   0  0  0  0  0  0
   -0.0163    4.4363    0.4750 H   0  0  0  0  0  0
   -2.4944    4.6258    0.4873 H   0  0  0  0  0  0
   -3.8542    2.5856    0.2072 H   0  0  0  0  0  0
   -2.6610   -2.0995   -0.4162 H   0  0  0  0  0  0
   -0.2381   -2.1269   -0.3809 H   0  0  0  0  0  0
    2.1526    1.2859   -1.6808 H   0  0  0  0  0  0
    4.6121    0.5008   -1.0144 H   0  0  0  0  0  0
    4.3035   -1.3050    1.0092 H   0  0  0  0  0  0
    2.4791   -1.9865    2.5283 H   0  0  0  0  0  0
    1.3774   -2.7345    1.3607 H   0  0  0  0  0  0
    0.8560   -1.3018    2.2830 H   0  0  0  0  0  0
  1  2  2  0  0  0
  1 10  1  0  0  0
  2  3  1  0  0  0
  2 20  1  0  0  0
  3  4  2  0  0  0
  3 21  1  0  0  0
  4  5  1  0  0  0
  4 22  1  0  0  0
  5  6  2  0  0  0
  5 10  1  0  0  0
  6  7  1  0  0  0
  6 11  1  0  0  0
  7  8  2  0  0  0
  7 23  1  0  0  0
  8  9  1  0  0  0
  8 24  1  0  0  0
  9 10  2  0  0  0
  9 14  1  0  0  0
 11 12  2  0  0  0
 11 13  1  0  0  0
 14 15  2  0  0  0
 14 18  1  0  0  0
 15 16  1  0  0  0
 15 25  1  0  0  0
 16 17  2  0  0  0
 16 26  1  0  0  0
 17 18  1  0  0  0
 17 27  1  0  0  0
 18 19  1  0  0  0
 19 28  1  0  0  0
 19 29  1  0  0  0
 19 30  1  0  0  0
M  CHG  2  11   1  13  -1
M  END
> <chembl_id>
CHEMBL4225141

> <chembl_pref_name>
None

> <s_m_source_file>
sdf/inactives_sanitized.sdf

> <i_m_source_file_index>
210

> <i_lp_mmshare_version>
49012

> <i_m_ct_stereo_status>
1

> <i_f3d_flags>
0

> <s_epik_input>
W2NIXTFbY0hdW2NIXW5jKGMxMiljKFtjSF1bY0hdYzJbTitdKD1PKVtPLV0pLWMzW2NIXVtjSF1bY0hdbjNbQ0gzXQ==

> <s_epik_cmdline>
J2VwaWtfcHl0aG9uJywgJy1waHQnLCAnMC41JywgJy1waCcsICc3LjUnLCAnLW50JywgJy1tYScsICcyMDAnLCAnLWltYWUnLCAnPGluZmlsZS5tYWU+JywgJy1vbWFlJywgJzxvdXRmaWxlLm1hZT4n

> <r_lp_tautomer_probability>
1

> <r_epik_Ionization_Penalty>
  0.0000

> <r_epik_Ionization_Penalty_Charging>
  0.0000

> <r_epik_Ionization_Penalty_Neutral>
  0.0000

> <r_epik_State_Penalty>
 -0.0000

> <r_epik_Charging_Adjusted_Penalty>
0

> <i_epik_Tot_Q>
0

> <i_epik_Tot_abs_Q>
2

> <s_lp_Force_Field>
OPLS3e

> <r_lp_Energy>
33.452759

> <b_lp_Chiralities_Consistent>
1

> <s_lp_Variant>
sdf/inactives_sanitized.sdf:210-1

$$$$
sdf/inactives_sanitized.sdf:211
                    3D
 Schrodinger Suite 2020-1.
 47 49  0  0  1  0            999 V2000
    0.0075   -0.0266    0.0163 C   0  0  0  0  0  0
   -0.6381   -0.7421   -1.2211 C   0  0  0  0  0  0
   -0.2901   -2.2452   -1.2870 C   0  0  0  0  0  0
   -0.7113   -2.9782    0.0013 C   0  0  0  0  0  0
   -0.1591   -2.2906    1.2650 C   0  0  0  0  0  0
   -0.4995   -0.7840    1.2859 C   0  0  0  0  0  0
    2.2980    0.6180   -0.8989 C   0  0  0  0  0  0
    1.4903   -0.0300   -0.0351 N   0  0  0  0  0  0
    1.8852    1.3917   -1.7652 O   0  0  0  0  0  0
   -0.6109    1.4120    0.1520 C   0  0  0  0  0  0
    0.0777    2.3127    0.8810 N   0  0  0  0  0  0
   -1.7580    1.6532   -0.2322 O   0  0  0  0  0  0
   -0.4024    3.6456    1.2342 C   0  0  0  0  0  0
   -1.5367    3.6109    2.1743 C   0  0  0  0  0  0
   -2.4268    3.5832    2.9132 N   0  0  0  0  0  0
    5.9032    1.7746    0.0003 C   0  0  0  0  0  0
    3.8010    0.3382   -0.7304 C   0  0  2  0  0  0
    4.7145    1.5317   -0.9111 C   0  0  2  0  0  0
    4.6884    0.4427   -1.9628 C   0  0  0  0  0  0
    5.7177    1.8247    1.3839 C   0  0  0  0  0  0
    6.8052    2.0615    2.2209 C   0  0  0  0  0  0
    8.0707    2.2529    1.6698 C   0  0  0  0  0  0
    8.2588    2.2126    0.2895 C   0  0  0  0  0  0
    7.1718    1.9763   -0.5482 C   0  0  0  0  0  0
   -1.7178   -0.5960   -1.2868 H   0  0  0  0  0  0
   -0.2426   -0.2968   -2.1355 H   0  0  0  0  0  0
   -0.7778   -2.7021   -2.1489 H   0  0  0  0  0  0
    0.7823   -2.3710   -1.4445 H   0  0  0  0  0  0
   -1.8006   -3.0118    0.0562 H   0  0  0  0  0  0
   -0.3774   -4.0158   -0.0344 H   0  0  0  0  0  0
   -0.5634   -2.7745    2.1550 H   0  0  0  0  0  0
    0.9223   -2.4278    1.3111 H   0  0  0  0  0  0
   -0.0004   -0.3740    2.1669 H   0  0  0  0  0  0
   -1.5641   -0.6235    1.4752 H   0  0  0  0  0  0
    1.9173   -0.8059    0.4495 H   0  0  0  0  0  0
    0.9667    2.0368    1.2720 H   0  0  0  0  0  0
    0.4088    4.2015    1.7037 H   0  0  0  0  0  0
   -0.6985    4.2011    0.3428 H   0  0  0  0  0  0
    4.0572   -0.4100    0.0217 H   0  0  0  0  0  0
    4.2484    2.4694   -1.2200 H   0  0  0  0  0  0
    4.2480    0.6626   -2.9363 H   0  0  0  0  0  0
    5.5426   -0.2295   -2.0484 H   0  0  0  0  0  0
    4.7355    1.6780    1.8094 H   0  0  0  0  0  0
    6.6684    2.0979    3.2916 H   0  0  0  0  0  0
    8.9140    2.4369    2.3191 H   0  0  0  0  0  0
    9.2426    2.3655   -0.1290 H   0  0  0  0  0  0
    7.3163    1.9487   -1.6187 H   0  0  0  0  0  0
  1  2  1  0  0  0
  1  6  1  0  0  0
  1  8  1  0  0  0
  1 10  1  0  0  0
  2  3  1  0  0  0
  2 25  1  0  0  0
  2 26  1  0  0  0
  3  4  1  0  0  0
  3 27  1  0  0  0
  3 28  1  0  0  0
  4  5  1  0  0  0
  4 29  1  0  0  0
  4 30  1  0  0  0
  5  6  1  0  0  0
  5 31  1  0  0  0
  5 32  1  0  0  0
  6 33  1  0  0  0
  6 34  1  0  0  0
  7 17  1  0  0  0
  7  8  1  0  0  0
  7  9  2  0  0  0
  8 35  1  0  0  0
 10 11  1  0  0  0
 10 12  2  0  0  0
 11 13  1  0  0  0
 11 36  1  0  0  0
 13 14  1  0  0  0
 13 37  1  0  0  0
 13 38  1  0  0  0
 14 15  3  0  0  0
 16 18  1  0  0  0
 16 20  2  0  0  0
 16 24  1  0  0  0
 17 18  1  0  0  0
 17 19  1  0  0  0
 17 39  1  0  0  0
 18 19  1  0  0  0
 18 40  1  0  0  0
 19 41  1  0  0  0
 19 42  1  0  0  0
 20 21  1  0  0  0
 20 43  1  0  0  0
 21 22  2  0  0  0
 21 44  1  0  0  0
 22 23  1  0  0  0
 22 45  1  0  0  0
 23 24  2  0  0  0
 23 46  1  0  0  0
 24 47  1  0  0  0
M  END
> <chembl_id>
CHEMBL3218473

> <chembl_pref_name>
None

> <i_m_ct_stereo_status>
1

> <s_m_source_file>
sdf/inactives_sanitized.sdf

> <i_m_source_file_index>
211

> <i_lp_mmshare_version>
49012

> <i_f3d_flags>
0

> <s_epik_input>
W0NIMl0xW0NIMl1bQ0gyXVtDSDJdW0NIMl1DMShDKD1PKVtOSF1bQ0gyXUMjTilbTkhdQyg9TylbQ0BASF0yW0NASF0oW0NIMl0yKWMzW2NIXVtjSF1bY0hdW2NIXVtjSF0z

> <s_epik_cmdline>
J2VwaWtfcHl0aG9uJywgJy1waHQnLCAnMC41JywgJy1waCcsICc3LjUnLCAnLW50JywgJy1tYScsICcyMDAnLCAnLWltYWUnLCAnPGluZmlsZS5tYWU+JywgJy1vbWFlJywgJzxvdXRmaWxlLm1hZT4n

> <r_lp_tautomer_probability>
1

> <r_epik_Ionization_Penalty>
  0.0000

> <r_epik_Ionization_Penalty_Charging>
  0.0000

> <r_epik_Ionization_Penalty_Neutral>
  0.0000

> <r_epik_State_Penalty>
 -0.0000

> <r_epik_Charging_Adjusted_Penalty>
0

> <i_epik_Tot_Q>
0

> <i_epik_Tot_abs_Q>
0

> <s_lp_Force_Field>
OPLS3e

> <r_lp_Energy>
46.939487

> <b_lp_Chiralities_Consistent>
1

> <s_lp_Variant>
sdf/inactives_sanitized.sdf:211-1

$$$$
sdf/inactives_sanitized.sdf:212
                    3D
 Schrodinger Suite 2020-1.
 56 57  0  0  1  0            999 V2000
    2.0802    0.0520   -2.5610 C   0  0  0  0  0  0
    1.5653   -1.0219   -2.8792 O   0  0  0  0  0  0
    2.7878    0.8597   -3.3958 O   0  0  0  0  0  0
    3.0249    0.6107   -4.7945 C   0  0  0  0  0  0
    1.6981    0.5526   -5.5922 C   0  0  0  0  0  0
    3.8543   -0.6804   -5.0045 C   0  0  0  0  0  0
    3.8472    1.8276   -5.2660 C   0  0  0  0  0  0
   -0.2961   -2.4151    0.6623 N   0  0  0  0  0  0
   -1.3673   -3.2844    0.8473 N   0  0  0  0  0  0
   -2.4214   -2.6790    0.3523 C   0  0  0  0  0  0
   -2.1204   -1.4533   -0.1505 O   0  0  0  0  0  0
   -0.7841   -1.3498    0.0710 C   0  0  0  0  0  0
   -0.1001   -0.1361   -0.3647 C   0  0  0  0  0  0
   -0.7338    0.7808   -0.8940 O   0  0  0  0  0  0
    1.4156   -0.0305   -0.1400 C   0  0  1  0  0  0
    2.0534    0.6371   -1.2959 N   0  0  0  0  0  0
    1.7123    0.7802    1.1506 C   0  0  0  0  0  0
    1.2693    0.1110    2.4700 C   0  0  0  0  0  0
    1.7091    0.8966    3.7128 C   0  0  0  0  0  0
   -3.8292   -3.1734    0.2795 C   0  0  0  0  0  0
   -4.1569   -4.4458    0.7512 C   0  0  0  0  0  0
   -5.4679   -4.9082    0.6770 C   0  0  0  0  0  0
   -6.4897   -4.1122    0.1316 C   0  0  0  0  0  0
   -6.1432   -2.8336   -0.3377 C   0  0  0  0  0  0
   -4.8327   -2.3702   -0.2649 C   0  0  0  0  0  0
   -7.8293   -4.5870    0.0500 N   0  0  0  0  0  0
   -8.2077   -5.8502    0.6832 C   0  0  0  0  0  0
   -8.9138   -3.6807   -0.3277 C   0  0  0  0  0  0
    1.8818    0.5014   -6.6661 H   0  0  0  0  0  0
    1.0862    1.4361   -5.4062 H   0  0  0  0  0  0
    1.0954   -0.3164   -5.3291 H   0  0  0  0  0  0
    3.3005   -1.5771   -4.7271 H   0  0  0  0  0  0
    4.7655   -0.6665   -4.4052 H   0  0  0  0  0  0
    4.1503   -0.7966   -6.0478 H   0  0  0  0  0  0
    4.0901    1.7621   -6.3275 H   0  0  0  0  0  0
    4.7875    1.9113   -4.7190 H   0  0  0  0  0  0
    3.3036    2.7611   -5.1118 H   0  0  0  0  0  0
    1.8916   -1.0065   -0.0227 H   0  0  0  0  0  0
    2.7637    1.3251   -1.0933 H   0  0  0  0  0  0
    2.7891    0.9524    1.2042 H   0  0  0  0  0  0
    1.2693    1.7760    1.0772 H   0  0  0  0  0  0
    0.1841    0.0074    2.4926 H   0  0  0  0  0  0
    1.6782   -0.8989    2.5252 H   0  0  0  0  0  0
    1.3724    0.4028    4.6247 H   0  0  0  0  0  0
    1.2937    1.9049    3.7110 H   0  0  0  0  0  0
    2.7950    0.9813    3.7648 H   0  0  0  0  0  0
   -3.3974   -5.0859    1.1767 H   0  0  0  0  0  0
   -5.6649   -5.8989    1.0564 H   0  0  0  0  0  0
   -6.8784   -2.1719   -0.7689 H   0  0  0  0  0  0
   -4.6061   -1.3816   -0.6374 H   0  0  0  0  0  0
   -7.5721   -6.6679    0.3422 H   0  0  0  0  0  0
   -9.2418   -6.1223    0.4686 H   0  0  0  0  0  0
   -8.0981   -5.7748    1.7655 H   0  0  0  0  0  0
   -8.7173   -3.2123   -1.2925 H   0  0  0  0  0  0
   -9.0130   -2.8862    0.4127 H   0  0  0  0  0  0
   -9.8732   -4.1945   -0.3970 H   0  0  0  0  0  0
  1 16  1  0  0  0
  1  2  2  0  0  0
  1  3  1  0  0  0
  3  4  1  0  0  0
  4  5  1  0  0  0
  4  6  1  0  0  0
  4  7  1  0  0  0
  5 29  1  0  0  0
  5 30  1  0  0  0
  5 31  1  0  0  0
  6 32  1  0  0  0
  6 33  1  0  0  0
  6 34  1  0  0  0
  7 35  1  0  0  0
  7 36  1  0  0  0
  7 37  1  0  0  0
  8  9  1  0  0  0
  8 12  2  0  0  0
  9 10  2  0  0  0
 10 20  1  0  0  0
 10 11  1  0  0  0
 11 12  1  0  0  0
 12 13  1  0  0  0
 13 14  2  0  0  0
 13 15  1  0  0  0
 15 16  1  0  0  0
 15 17  1  0  0  0
 15 38  1  0  0  0
 16 39  1  0  0  0
 17 18  1  0  0  0
 17 40  1  0  0  0
 17 41  1  0  0  0
 18 19  1  0  0  0
 18 42  1  0  0  0
 18 43  1  0  0  0
 19 44  1  0  0  0
 19 45  1  0  0  0
 19 46  1  0  0  0
 20 21  2  0  0  0
 20 25  1  0  0  0
 21 22  1  0  0  0
 21 47  1  0  0  0
 22 23  2  0  0  0
 22 48  1  0  0  0
 23 24  1  0  0  0
 23 26  1  0  0  0
 24 25  2  0  0  0
 24 49  1  0  0  0
 25 50  1  0  0  0
 26 27  1  0  0  0
 26 28  1  0  0  0
 27 51  1  0  0  0
 27 52  1  0  0  0
 27 53  1  0  0  0
 28 54  1  0  0  0
 28 55  1  0  0  0
 28 56  1  0  0  0
M  END
> <chembl_id>
CHEMBL210523

> <chembl_pref_name>
None

> <i_m_ct_stereo_status>
1

> <s_m_source_file>
sdf/inactives_sanitized.sdf

> <i_m_source_file_index>
212

> <i_lp_mmshare_version>
49012

> <i_f3d_flags>
0

> <s_epik_input>
W0NIM11DKFtDSDNdKShbQ0gzXSlPQyg9TylbTkhdW0NAQEhdKFtDSDJdW0NIMl1bQ0gzXSlDKD1PKWMobzEpbm5jMS1jMltjSF1bY0hdYyhbY0hdW2NIXTIpTihbQ0gzXSlbQ0gzXQ==

> <s_epik_cmdline>
J2VwaWtfcHl0aG9uJywgJy1waHQnLCAnMC41JywgJy1waCcsICc3LjUnLCAnLW50JywgJy1tYScsICcyMDAnLCAnLWltYWUnLCAnPGluZmlsZS5tYWU+JywgJy1vbWFlJywgJzxvdXRmaWxlLm1hZT4n

> <r_lp_tautomer_probability>
1

> <r_epik_Ionization_Penalty>
  0.0003

> <r_epik_Ionization_Penalty_Charging>
  0.0000

> <r_epik_Ionization_Penalty_Neutral>
  0.0003

> <r_epik_State_Penalty>
 -0.0000

> <r_epik_Charging_Adjusted_Penalty>
0

> <i_epik_Tot_Q>
0

> <i_epik_Tot_abs_Q>
0

> <s_epik_Chemistry_Notes>
This compound has an ester and may undergo hydrolysis at high or low pH.

> <s_lp_Force_Field>
OPLS3e

> <r_lp_Energy>
41.528014

> <b_lp_Chiralities_Consistent>
1

> <s_lp_Variant>
sdf/inactives_sanitized.sdf:212-1

$$$$
sdf/inactives_sanitized.sdf:213
                    3D
 Schrodinger Suite 2020-1.
 55 56  0  0  1  0            999 V2000
    0.3381   -0.2743    0.0393 C   0  0  1  0  0  0
    1.8523    0.0135   -0.1129 C   0  0  0  0  0  0
    2.6406   -0.9195   -0.2792 O   0  0  0  0  0  0
    4.0174    0.3978    2.2728 O   0  0  0  0  0  0
    4.1838    0.0073    3.5610 C   0  0  0  0  0  0
    4.3293    1.0186    4.3800 N   0  0  0  0  0  0
    4.2406    2.1638    3.5923 N   0  0  0  0  0  0
    4.0484    1.7525    2.3599 C   0  0  0  0  0  0
    3.8636    2.5448    1.1437 C   0  0  0  0  0  0
    3.9483    3.7741    1.1920 O   0  0  0  0  0  0
    3.5888    1.8230   -0.1745 C   0  0  1  0  0  0
    2.2183    1.3072   -0.0412 N   0  0  0  0  0  0
    3.7650    2.7304   -1.4215 C   0  0  0  0  0  0
    3.5900    1.9813   -2.7570 C   0  0  0  0  0  0
    3.8121    2.8819   -3.9795 C   0  0  0  0  0  0
    4.1407   -1.4016    3.8845 C   0  0  0  0  0  0
    4.3198   -2.1226    5.0579 C   0  0  0  0  0  0
    4.1172   -3.4679    4.7464 C   0  0  0  0  0  0
    3.8205   -3.5121    3.3955 C   0  0  0  0  0  0
    3.8351   -2.2594    2.8734 O   0  0  0  0  0  0
   -0.1222   -0.9635   -1.1896 N   0  0  1  0  0  0
   -0.3491   -0.0969   -2.3448 C   0  0  0  0  0  0
   -0.8144   -0.9089   -3.5676 C   0  0  0  0  0  0
   -1.0116   -0.1045   -4.6114 F   0  0  0  0  0  0
    0.0916   -1.8187   -3.9297 F   0  0  0  0  0  0
   -1.9613   -1.5480   -3.3327 F   0  0  0  0  0  0
    0.0193   -1.1350    1.2931 C   0  0  0  0  0  0
    0.5171   -0.5922    2.6566 C   0  0  0  0  0  0
    0.2096   -1.5853    3.7971 C   0  0  0  0  0  0
    0.0061    0.8317    2.9624 C   0  0  0  0  0  0
   -0.1996    0.6710    0.1414 H   0  0  0  0  0  0
    4.3070    1.0044   -0.2660 H   0  0  0  0  0  0
    1.4978    2.0095    0.0454 H   0  0  0  0  0  0
    3.0479    3.5533   -1.3855 H   0  0  0  0  0  0
    4.7595    3.1810   -1.4050 H   0  0  0  0  0  0
    4.2869    1.1431   -2.8011 H   0  0  0  0  0  0
    2.5894    1.5535   -2.8151 H   0  0  0  0  0  0
    3.6823    2.3202   -4.9049 H   0  0  0  0  0  0
    4.8190    3.3007   -3.9859 H   0  0  0  0  0  0
    3.1042    3.7112   -3.9945 H   0  0  0  0  0  0
    4.5641   -1.7169    6.0286 H   0  0  0  0  0  0
    4.1762   -4.3065    5.4243 H   0  0  0  0  0  0
    3.5884   -4.3135    2.7096 H   0  0  0  0  0  0
    0.4868   -1.7348   -1.4273 H   0  0  0  0  0  0
   -1.1056    0.6486   -2.0959 H   0  0  0  0  0  0
    0.5687    0.4333   -2.5981 H   0  0  0  0  0  0
   -1.0629   -1.2624    1.3548 H   0  0  0  0  0  0
    0.4137   -2.1426    1.1454 H   0  0  0  0  0  0
    1.6016   -0.5348    2.6015 H   0  0  0  0  0  0
   -0.5104   -1.1928    4.5149 H   0  0  0  0  0  0
    1.1163   -1.8321    4.3500 H   0  0  0  0  0  0
   -0.2004   -2.5231    3.4217 H   0  0  0  0  0  0
   -0.3148    0.9498    3.9972 H   0  0  0  0  0  0
   -0.8407    1.1068    2.3340 H   0  0  0  0  0  0
    0.7941    1.5659    2.7908 H   0  0  0  0  0  0
  1  2  1  0  0  0
  1 21  1  0  0  0
  1 27  1  0  0  0
  1 31  1  0  0  0
  2 12  1  0  0  0
  2  3  2  0  0  0
  4  8  1  0  0  0
  4  5  1  0  0  0
  5  6  2  0  0  0
  5 16  1  0  0  0
  6  7  1  0  0  0
  7  8  2  0  0  0
  8  9  1  0  0  0
  9 10  2  0  0  0
  9 11  1  0  0  0
 11 12  1  0  0  0
 11 13  1  0  0  0
 11 32  1  0  0  0
 12 33  1  0  0  0
 13 14  1  0  0  0
 13 34  1  0  0  0
 13 35  1  0  0  0
 14 15  1  0  0  0
 14 36  1  0  0  0
 14 37  1  0  0  0
 15 38  1  0  0  0
 15 39  1  0  0  0
 15 40  1  0  0  0
 16 17  2  0  0  0
 16 20  1  0  0  0
 17 18  1  0  0  0
 17 41  1  0  0  0
 18 19  2  0  0  0
 18 42  1  0  0  0
 19 20  1  0  0  0
 19 43  1  0  0  0
 21 22  1  0  0  0
 21 44  1  0  0  0
 22 23  1  0  0  0
 22 45  1  0  0  0
 22 46  1  0  0  0
 23 24  1  0  0  0
 23 25  1  0  0  0
 23 26  1  0  0  0
 27 28  1  0  0  0
 27 47  1  0  0  0
 27 48  1  0  0  0
 28 29  1  0  0  0
 28 30  1  0  0  0
 28 49  1  0  0  0
 29 50  1  0  0  0
 29 51  1  0  0  0
 29 52  1  0  0  0
 30 53  1  0  0  0
 30 54  1  0  0  0
 30 55  1  0  0  0
M  END
> <chembl_id>
CHEMBL210625

> <chembl_pref_name>
None

> <i_m_ct_stereo_status>
1

> <s_m_source_file>
sdf/inactives_sanitized.sdf

> <i_m_source_file_index>
213

> <i_lp_mmshare_version>
49012

> <i_f3d_flags>
0

> <s_epik_input>
RkMoRikoRilbQ0gyXVtOSF1bQ0BASF0oW0NIMl1bQ0hdKFtDSDNdKVtDSDNdKUMoPU8pW05IXVtDQEBIXShbQ0gyXVtDSDJdW0NIM10pQyg9TyljKG5uMSlvYzEtYzJbY0hdW2NIXVtjSF1vMg==

> <s_epik_cmdline>
J2VwaWtfcHl0aG9uJywgJy1waHQnLCAnMC41JywgJy1waCcsICc3LjUnLCAnLW50JywgJy1tYScsICcyMDAnLCAnLWltYWUnLCAnPGluZmlsZS5tYWU+JywgJy1vbWFlJywgJzxvdXRmaWxlLm1hZT4n

> <r_lp_tautomer_probability>
0.99990000499975

> <r_epik_Ionization_Penalty>
  0.0250

> <r_epik_Ionization_Penalty_Charging>
  0.0000

> <r_epik_Ionization_Penalty_Neutral>
  0.0250

> <r_epik_State_Penalty>
  0.0203

> <r_epik_Charging_Adjusted_Penalty>
0.0203026153230622

> <i_epik_Tot_Q>
0

> <i_epik_Tot_abs_Q>
0

> <s_lp_Force_Field>
OPLS3e

> <r_lp_Energy>
30.773203

> <b_lp_Chiralities_Consistent>
1

> <s_lp_Variant>
sdf/inactives_sanitized.sdf:213-1

$$$$
sdf/inactives_sanitized.sdf:214
                    3D
 Schrodinger Suite 2020-1.
 69 72  0  0  1  0            999 V2000
    3.8623   -0.1866   -0.9199 C   0  0  0  0  0  0
    4.1411    0.6795    0.3594 C   0  0  0  0  0  0
    5.5995    0.5506    0.8519 C   0  0  0  0  0  0
    5.9652   -0.9175    1.1480 C   0  0  0  0  0  0
    5.6366   -1.8497   -0.0352 C   0  0  0  0  0  0
    4.1793   -1.6614   -0.5134 C   0  0  0  0  0  0
    2.3275   -0.2085   -1.2568 C   0  0  0  0  0  0
    1.9525   -0.4277   -2.4114 O   0  0  0  0  0  0
   -2.6036    0.3908   -1.5586 O   0  0  0  0  0  0
   -3.7756    0.8803   -2.0403 C   0  0  0  0  0  0
   -3.7356    2.1806   -2.2128 N   0  0  0  0  0  0
   -2.4620    2.5864   -1.8245 N   0  0  0  0  0  0
   -1.8297    1.5016   -1.4423 C   0  0  0  0  0  0
   -0.4658    1.3646   -0.9361 C   0  0  0  0  0  0
    0.2923    2.3390   -0.9460 O   0  0  0  0  0  0
   -0.0311   -0.0046   -0.3932 C   0  0  1  0  0  0
    1.4360   -0.0466   -0.2565 N   0  0  0  0  0  0
   -0.7301   -0.2935    0.9619 C   0  0  0  0  0  0
   -0.3990   -1.6838    1.5424 C   0  0  0  0  0  0
   -1.1554   -1.9832    2.8435 C   0  0  0  0  0  0
    4.6847    0.2156   -2.0844 N   0  0  0  0  0  0
    4.6383    1.3720   -2.7831 C   0  0  0  0  0  0
    5.6551    1.5252   -3.8959 C   0  0  0  0  0  0
    3.8061    2.2546   -2.5628 O   0  0  0  0  0  0
    6.7632    0.6702   -4.0041 C   0  0  0  0  0  0
    7.6811    0.8301   -5.0379 C   0  0  0  0  0  0
    7.5192    1.8407   -5.9845 C   0  0  0  0  0  0
    6.4176    2.7022   -5.8780 C   0  0  0  0  0  0
    5.4986    2.5448   -4.8441 C   0  0  0  0  0  0
    8.4826    1.9129   -6.9746 O   0  0  0  0  0  0
    8.3894    2.8899   -8.0114 C   0  0  0  0  0  0
    9.4327    2.7102   -8.8195 F   0  0  0  0  0  0
    7.2834    2.7316   -8.7415 F   0  0  0  0  0  0
    8.4644    4.1313   -7.5274 F   0  0  0  0  0  0
   -4.9094   -0.0586   -2.2957 C   0  0  0  0  0  0
   -6.1454    0.4326   -2.7326 C   0  0  0  0  0  0
   -7.2038   -0.4411   -2.9681 C   0  0  0  0  0  0
   -7.0278   -1.8081   -2.7680 C   0  0  0  0  0  0
   -5.8026   -2.3087   -2.3344 C   0  0  0  0  0  0
   -4.7444   -1.4348   -2.0981 C   0  0  0  0  0  0
    3.9965    1.7325    0.1120 H   0  0  0  0  0  0
    3.4458    0.4838    1.1772 H   0  0  0  0  0  0
    6.2823    0.9534    0.1023 H   0  0  0  0  0  0
    5.7442    1.1560    1.7476 H   0  0  0  0  0  0
    7.0235   -0.9939    1.4000 H   0  0  0  0  0  0
    5.4183   -1.2525    2.0309 H   0  0  0  0  0  0
    6.3273   -1.6537   -0.8568 H   0  0  0  0  0  0
    5.8009   -2.8880    0.2556 H   0  0  0  0  0  0
    3.4664   -2.0649    0.2103 H   0  0  0  0  0  0
    4.0707   -2.3018   -1.3922 H   0  0  0  0  0  0
   -0.3351   -0.7889   -1.0905 H   0  0  0  0  0  0
    1.7853    0.1177    0.6765 H   0  0  0  0  0  0
   -0.4444    0.4664    1.6926 H   0  0  0  0  0  0
   -1.8134   -0.2216    0.8496 H   0  0  0  0  0  0
    0.6719   -1.7645    1.7332 H   0  0  0  0  0  0
   -0.6407   -2.4536    0.8081 H   0  0  0  0  0  0
   -0.8953   -2.9710    3.2253 H   0  0  0  0  0  0
   -2.2345   -1.9630    2.6877 H   0  0  0  0  0  0
   -0.9150   -1.2549    3.6187 H   0  0  0  0  0  0
    5.5467   -0.3011   -2.1750 H   0  0  0  0  0  0
    6.9322   -0.1255   -3.2928 H   0  0  0  0  0  0
    8.5267    0.1610   -5.1050 H   0  0  0  0  0  0
    6.2532    3.4990   -6.5867 H   0  0  0  0  0  0
    4.6590    3.2239   -4.7939 H   0  0  0  0  0  0
   -6.2921    1.4916   -2.8898 H   0  0  0  0  0  0
   -8.1574   -0.0600   -3.3033 H   0  0  0  0  0  0
   -7.8491   -2.4857   -2.9501 H   0  0  0  0  0  0
   -5.6738   -3.3700   -2.1808 H   0  0  0  0  0  0
   -3.7988   -1.8352   -1.7618 H   0  0  0  0  0  0
  1  7  1  0  0  0
  1 21  1  0  0  0
  1  2  1  0  0  0
  1  6  1  0  0  0
  2  3  1  0  0  0
  2 41  1  0  0  0
  2 42  1  0  0  0
  3  4  1  0  0  0
  3 43  1  0  0  0
  3 44  1  0  0  0
  4  5  1  0  0  0
  4 45  1  0  0  0
  4 46  1  0  0  0
  5  6  1  0  0  0
  5 47  1  0  0  0
  5 48  1  0  0  0
  6 49  1  0  0  0
  6 50  1  0  0  0
  7  8  2  0  0  0
  7 17  1  0  0  0
  9 10  1  0  0  0
  9 13  1  0  0  0
 10 11  2  0  0  0
 10 35  1  0  0  0
 11 12  1  0  0  0
 12 13  2  0  0  0
 13 14  1  0  0  0
 14 15  2  0  0  0
 14 16  1  0  0  0
 16 17  1  0  0  0
 16 18  1  0  0  0
 16 51  1  0  0  0
 17 52  1  0  0  0
 18 19  1  0  0  0
 18 53  1  0  0  0
 18 54  1  0  0  0
 19 20  1  0  0  0
 19 55  1  0  0  0
 19 56  1  0  0  0
 20 57  1  0  0  0
 20 58  1  0  0  0
 20 59  1  0  0  0
 21 22  1  0  0  0
 21 60  1  0  0  0
 22 23  1  0  0  0
 22 24  2  0  0  0
 23 25  2  0  0  0
 23 29  1  0  0  0
 25 26  1  0  0  0
 25 61  1  0  0  0
 26 27  2  0  0  0
 26 62  1  0  0  0
 27 28  1  0  0  0
 27 30  1  0  0  0
 28 29  2  0  0  0
 28 63  1  0  0  0
 29 64  1  0  0  0
 30 31  1  0  0  0
 31 32  1  0  0  0
 31 33  1  0  0  0
 31 34  1  0  0  0
 35 36  2  0  0  0
 35 40  1  0  0  0
 36 37  1  0  0  0
 36 65  1  0  0  0
 37 38  2  0  0  0
 37 66  1  0  0  0
 38 39  1  0  0  0
 38 67  1  0  0  0
 39 40  2  0  0  0
 39 68  1  0  0  0
 40 69  1  0  0  0
M  END
> <chembl_id>
CHEMBL211050

> <chembl_pref_name>
None

> <i_m_ct_stereo_status>
1

> <s_m_source_file>
sdf/inactives_sanitized.sdf

> <i_m_source_file_index>
214

> <i_lp_mmshare_version>
49012

> <i_f3d_flags>
0

> <s_epik_input>
RkMoRikoRilPYyhbY0hdW2NIXTEpW2NIXVtjSF1jMUMoPU8pW05IXUMyKFtDSDJdW0NIMl1bQ0gyXVtDSDJdW0NIMl0yKUMoPU8pW05IXVtDQEBIXShbQ0gyXVtDSDJdW0NIM10pQyg9TyljKG5uMylvYzMtYzRbY0hdW2NIXVtjSF1bY0hdW2NIXTQ=

> <s_epik_cmdline>
J2VwaWtfcHl0aG9uJywgJy1waHQnLCAnMC41JywgJy1waCcsICc3LjUnLCAnLW50JywgJy1tYScsICcyMDAnLCAnLWltYWUnLCAnPGluZmlsZS5tYWU+JywgJy1vbWFlJywgJzxvdXRmaWxlLm1hZT4n

> <r_lp_tautomer_probability>
1

> <r_epik_Ionization_Penalty>
  0.0000

> <r_epik_Ionization_Penalty_Charging>
  0.0000

> <r_epik_Ionization_Penalty_Neutral>
  0.0000

> <r_epik_State_Penalty>
 -0.0000

> <r_epik_Charging_Adjusted_Penalty>
0

> <i_epik_Tot_Q>
0

> <i_epik_Tot_abs_Q>
0

> <s_lp_Force_Field>
OPLS3e

> <r_lp_Energy>
59.460544

> <b_lp_Chiralities_Consistent>
1

> <s_lp_Variant>
sdf/inactives_sanitized.sdf:214-1

$$$$
sdf/inactives_sanitized.sdf:215
                    3D
 Schrodinger Suite 2020-1.
 41 43  0  0  1  0            999 V2000
   -0.4924    1.0024    0.1635 C   0  0  0  0  0  0
   -0.4101    1.8724    1.2519 C   0  0  0  0  0  0
   -1.0804    3.0919    1.2184 C   0  0  0  0  0  0
   -1.8385    3.4553    0.1043 C   0  0  0  0  0  0
   -1.9143    2.5777   -0.9894 C   0  0  0  0  0  0
   -1.2424    1.3587   -0.9586 C   0  0  0  0  0  0
    0.2368   -0.3305    0.1994 C   0  0  0  0  0  0
    1.9605   -0.1494   -0.3661 S   0  0  0  0  0  0
    2.5771   -1.8444   -0.2505 C   0  0  0  0  0  0
    3.8333   -1.9594   -0.5344 N   0  5  0  0  0  0
    4.4188   -3.1795   -0.4695 C   0  0  0  0  0  0
    3.5959   -4.3021   -0.1185 N   0  0  0  0  0  0
    2.3420   -4.0741    0.1256 C   0  0  0  0  0  0
    1.7638   -2.7944    0.1102 N   0  0  0  0  0  0
    5.6159   -3.3187   -0.7086 O   0  0  0  0  0  0
    1.3163   -5.5188    0.4707 S   0  0  0  0  0  0
   -0.3264   -4.7610    0.6885 C   0  0  0  0  0  0
   -1.3918   -5.8217    0.9103 C   0  0  0  0  0  0
   -2.0241   -6.4128   -0.1872 C   0  0  0  0  0  0
   -3.0089   -7.3763    0.0138 C   0  0  0  0  0  0
   -3.3613   -7.7418    1.3113 C   0  0  0  0  0  0
   -2.7381   -7.1531    2.4098 C   0  0  0  0  0  0
   -1.7521   -6.1903    2.2094 C   0  0  0  0  0  0
   -2.4727    4.6814    0.1640 O   0  0  0  0  0  0
   -3.2745    5.1027   -0.9344 C   0  0  0  0  0  0
    0.1732    1.6066    2.1218 H   0  0  0  0  0  0
   -1.0119    3.7599    2.0647 H   0  0  0  0  0  0
   -2.4882    2.8241   -1.8696 H   0  0  0  0  0  0
   -1.3067    0.6922   -1.8067 H   0  0  0  0  0  0
    0.2226   -0.7261    1.2163 H   0  0  0  0  0  0
   -0.2864   -1.0520   -0.4305 H   0  0  0  0  0  0
   -0.3084   -4.0699    1.5330 H   0  0  0  0  0  0
   -0.5855   -4.1723   -0.1931 H   0  0  0  0  0  0
   -1.7507   -6.1295   -1.1934 H   0  0  0  0  0  0
   -3.4968   -7.8379   -0.8320 H   0  0  0  0  0  0
   -4.1256   -8.4891    1.4667 H   0  0  0  0  0  0
   -3.0188   -7.4418    3.4120 H   0  0  0  0  0  0
   -1.2693   -5.7345    3.0619 H   0  0  0  0  0  0
   -3.6982    6.0828   -0.7157 H   0  0  0  0  0  0
   -4.1043    4.4163   -1.1098 H   0  0  0  0  0  0
   -2.6859    5.1944   -1.8483 H   0  0  0  0  0  0
  1  6  1  0  0  0
  1  2  2  0  0  0
  1  7  1  0  0  0
  2  3  1  0  0  0
  2 26  1  0  0  0
  3  4  2  0  0  0
  3 27  1  0  0  0
  4  5  1  0  0  0
  4 24  1  0  0  0
  5  6  2  0  0  0
  5 28  1  0  0  0
  6 29  1  0  0  0
  7  8  1  0  0  0
  7 30  1  0  0  0
  7 31  1  0  0  0
  8  9  1  0  0  0
  9 14  2  0  0  0
  9 10  1  0  0  0
 10 11  1  0  0  0
 11 15  2  0  0  0
 11 12  1  0  0  0
 12 13  2  0  0  0
 13 14  1  0  0  0
 13 16  1  0  0  0
 16 17  1  0  0  0
 17 18  1  0  0  0
 17 32  1  0  0  0
 17 33  1  0  0  0
 18 19  2  0  0  0
 18 23  1  0  0  0
 19 20  1  0  0  0
 19 34  1  0  0  0
 20 21  2  0  0  0
 20 35  1  0  0  0
 21 22  1  0  0  0
 21 36  1  0  0  0
 22 23  2  0  0  0
 22 37  1  0  0  0
 23 38  1  0  0  0
 24 25  1  0  0  0
 25 39  1  0  0  0
 25 40  1  0  0  0
 25 41  1  0  0  0
M  CHG  1  10  -1
M  END
> <chembl_id>
CHEMBL1836462

> <chembl_pref_name>
None

> <s_m_source_file>
sdf/inactives_sanitized.sdf

> <i_m_source_file_index>
215

> <i_lp_mmshare_version>
49012

> <i_m_ct_stereo_status>
1

> <i_f3d_flags>
0

> <s_epik_input>
W2NIXTFbY0hdYyhPW0NIM10pW2NIXVtjSF1jMVtDSDJdU2MyW25IXWMoPU8pbmMobjIpU1tDSDJdYzNbY0hdW2NIXVtjSF1bY0hdW2NIXTM=

> <s_epik_cmdline>
J2VwaWtfcHl0aG9uJywgJy1waHQnLCAnMC41JywgJy1waCcsICc3LjUnLCAnLW50JywgJy1tYScsICcyMDAnLCAnLWltYWUnLCAnPGluZmlsZS5tYWU+JywgJy1vbWFlJywgJzxvdXRmaWxlLm1hZT4n

> <r_lp_tautomer_probability>
1

> <r_epik_Ionization_Penalty>
  0.3245

> <r_epik_Ionization_Penalty_Charging>
  0.0003

> <r_epik_Ionization_Penalty_Neutral>
  0.3241

> <r_epik_State_Penalty>
 -0.0000

> <r_epik_Charging_Adjusted_Penalty>
0.000330722952361958

> <i_epik_Tot_Q>
-1

> <i_epik_Tot_abs_Q>
1

> <s_lp_Force_Field>
OPLS3e

> <r_lp_Energy>
45.093605

> <b_lp_Chiralities_Consistent>
1

> <s_lp_Variant>
sdf/inactives_sanitized.sdf:215-1

$$$$
sdf/inactives_sanitized.sdf:216
                    3D
 Schrodinger Suite 2020-1.
 37 39  0  0  1  0            999 V2000
   -1.3739    1.9579    0.5073 C   0  0  0  0  0  0
   -1.6585    3.2118   -0.0406 C   0  0  0  0  0  0
   -2.9727    3.6708   -0.0789 C   0  0  0  0  0  0
   -3.9978    2.8762    0.4309 C   0  0  0  0  0  0
   -3.7196    1.6248    0.9773 C   0  0  0  0  0  0
   -2.4061    1.1640    1.0150 C   0  0  0  0  0  0
    0.0597    1.4559    0.5496 C   0  0  0  0  0  0
    0.4824    0.5626   -0.9826 S   0  0  0  0  0  0
    2.1637   -0.0047   -0.6401 C   0  0  0  0  0  0
    2.6923   -0.6738   -1.6120 N   0  5  0  0  0  0
    3.9542   -1.1488   -1.4807 C   0  0  0  0  0  0
    4.6366   -0.9101   -0.2405 N   0  0  0  0  0  0
    4.0033   -0.2420    0.6744 C   0  0  0  0  0  0
    2.7150    0.2895    0.5018 N   0  0  0  0  0  0
    4.4937   -1.7684   -2.3945 O   0  0  0  0  0  0
    4.8566   -0.0354    2.2518 S   0  0  0  0  0  0
    3.6313    0.9104    3.2129 C   0  0  0  0  0  0
    4.1153    1.1443    4.6343 C   0  0  0  0  0  0
    3.7934    0.2281    5.6397 C   0  0  0  0  0  0
    4.2267    0.4478    6.9446 C   0  0  0  0  0  0
    4.9775    1.5837    7.2403 C   0  0  0  0  0  0
    5.2983    2.5030    6.2434 C   0  0  0  0  0  0
    4.8649    2.2841    4.9383 C   0  0  0  0  0  0
   -5.2735    3.3230    0.3938 F   0  0  0  0  0  0
   -0.8648    3.8280   -0.4379 H   0  0  0  0  0  0
   -3.1965    4.6387   -0.5028 H   0  0  0  0  0  0
   -4.5195    1.0140    1.3694 H   0  0  0  0  0  0
   -2.1921    0.1922    1.4360 H   0  0  0  0  0  0
    0.7407    2.2980    0.6828 H   0  0  0  0  0  0
    0.1904    0.7993    1.4116 H   0  0  0  0  0  0
    3.4401    1.8690    2.7276 H   0  0  0  0  0  0
    2.6802    0.3758    3.2373 H   0  0  0  0  0  0
    3.2118   -0.6532    5.4106 H   0  0  0  0  0  0
    3.9820   -0.2592    7.7238 H   0  0  0  0  0  0
    5.3137    1.7536    8.2525 H   0  0  0  0  0  0
    5.8799    3.3812    6.4818 H   0  0  0  0  0  0
    5.1136    2.9974    4.1658 H   0  0  0  0  0  0
  1  6  1  0  0  0
  1  2  2  0  0  0
  1  7  1  0  0  0
  2  3  1  0  0  0
  2 25  1  0  0  0
  3  4  2  0  0  0
  3 26  1  0  0  0
  4  5  1  0  0  0
  4 24  1  0  0  0
  5  6  2  0  0  0
  5 27  1  0  0  0
  6 28  1  0  0  0
  7  8  1  0  0  0
  7 29  1  0  0  0
  7 30  1  0  0  0
  8  9  1  0  0  0
  9 14  2  0  0  0
  9 10  1  0  0  0
 10 11  1  0  0  0
 11 12  1  0  0  0
 11 15  2  0  0  0
 12 13  2  0  0  0
 13 14  1  0  0  0
 13 16  1  0  0  0
 16 17  1  0  0  0
 17 18  1  0  0  0
 17 31  1  0  0  0
 17 32  1  0  0  0
 18 19  2  0  0  0
 18 23  1  0  0  0
 19 20  1  0  0  0
 19 33  1  0  0  0
 20 21  2  0  0  0
 20 34  1  0  0  0
 21 22  1  0  0  0
 21 35  1  0  0  0
 22 23  2  0  0  0
 22 36  1  0  0  0
 23 37  1  0  0  0
M  CHG  1  10  -1
M  END
> <chembl_id>
CHEMBL1836465

> <chembl_pref_name>
None

> <s_m_source_file>
sdf/inactives_sanitized.sdf

> <i_m_source_file_index>
216

> <i_lp_mmshare_version>
49012

> <i_m_ct_stereo_status>
1

> <i_f3d_flags>
0

> <s_epik_input>
W2NIXTFbY0hdYyhGKVtjSF1bY0hdYzFbQ0gyXVNjMltuSF1jKD1PKW5jKG4yKVNbQ0gyXWMzW2NIXVtjSF1bY0hdW2NIXVtjSF0z

> <s_epik_cmdline>
J2VwaWtfcHl0aG9uJywgJy1waHQnLCAnMC41JywgJy1waCcsICc3LjUnLCAnLW50JywgJy1tYScsICcyMDAnLCAnLWltYWUnLCAnPGluZmlsZS5tYWU+JywgJy1vbWFlJywgJzxvdXRmaWxlLm1hZT4n

> <r_lp_tautomer_probability>
1

> <r_epik_Ionization_Penalty>
  0.3258

> <r_epik_Ionization_Penalty_Charging>
  0.0003

> <r_epik_Ionization_Penalty_Neutral>
  0.3254

> <r_epik_State_Penalty>
 -0.0000

> <r_epik_Charging_Adjusted_Penalty>
0.000330722952361958

> <i_epik_Tot_Q>
-1

> <i_epik_Tot_abs_Q>
1

> <s_lp_Force_Field>
OPLS3e

> <r_lp_Energy>
40.284637

> <b_lp_Chiralities_Consistent>
1

> <s_lp_Variant>
sdf/inactives_sanitized.sdf:216-1

$$$$
sdf/inactives_sanitized.sdf:217
                    3D
 Schrodinger Suite 2020-1.
 39 41  0  0  1  0            999 V2000
   -1.6431    2.8352    0.0068 C   0  0  0  0  0  0
   -1.6810    3.5983   -1.1625 C   0  0  0  0  0  0
   -2.7914    4.3908   -1.4446 C   0  0  0  0  0  0
   -3.8673    4.4271   -0.5586 C   0  0  0  0  0  0
   -3.8498    3.6718    0.6245 C   0  0  0  0  0  0
   -2.7233    2.8784    0.8940 C   0  0  0  0  0  0
   -0.4295    1.9773    0.3219 C   0  0  0  0  0  0
   -0.6270    0.2985   -0.3591 S   0  0  0  0  0  0
    0.8736   -0.5265    0.2177 C   0  0  0  0  0  0
    0.9488   -1.7667   -0.1411 N   0  5  0  0  0  0
    2.0294   -2.4978    0.2220 C   0  0  0  0  0  0
    3.0361   -1.8565    1.0170 N   0  0  0  0  0  0
    2.8483   -0.6119    1.3390 C   0  0  0  0  0  0
    1.7461    0.1446    0.9141 N   0  0  0  0  0  0
    2.1407   -3.6740   -0.1156 O   0  0  0  0  0  0
    4.0358    0.2453    2.3988 S   0  0  0  0  0  0
    5.2301   -1.0665    2.8390 C   0  0  0  0  0  0
    4.6977   -2.0003    3.9193 C   0  0  0  0  0  0
    4.5633   -1.5385    5.2320 C   0  0  0  0  0  0
    4.0848   -2.3900    6.2245 C   0  0  0  0  0  0
    3.7476   -3.7032    5.9033 C   0  0  0  0  0  0
    3.8880   -4.1736    4.5996 C   0  0  0  0  0  0
    4.3673   -3.3225    3.6073 C   0  0  0  0  0  0
   -4.9944    3.7104    1.5672 N   0  3  0  0  0  0
   -4.9349    3.0372    2.5925 O   0  0  0  0  0  0
   -5.9613    4.4146    1.2893 O   0  5  0  0  0  0
   -0.8521    3.5755   -1.8553 H   0  0  0  0  0  0
   -2.8189    4.9775   -2.3510 H   0  0  0  0  0  0
   -4.7164    5.0492   -0.8013 H   0  0  0  0  0  0
   -2.6814    2.2845    1.7961 H   0  0  0  0  0  0
    0.4672    2.4425   -0.0909 H   0  0  0  0  0  0
   -0.2895    1.9291    1.4032 H   0  0  0  0  0  0
    5.5545   -1.6143    1.9529 H   0  0  0  0  0  0
    6.1261   -0.5791    3.2246 H   0  0  0  0  0  0
    4.8244   -0.5202    5.4815 H   0  0  0  0  0  0
    3.9756   -2.0340    7.2383 H   0  0  0  0  0  0
    3.3753   -4.3635    6.6726 H   0  0  0  0  0  0
    3.6269   -5.1935    4.3584 H   0  0  0  0  0  0
    4.4751   -3.6917    2.5975 H   0  0  0  0  0  0
  1  2  2  0  0  0
  1  7  1  0  0  0
  1  6  1  0  0  0
  2  3  1  0  0  0
  2 27  1  0  0  0
  3  4  2  0  0  0
  3 28  1  0  0  0
  4  5  1  0  0  0
  4 29  1  0  0  0
  5  6  2  0  0  0
  5 24  1  0  0  0
  6 30  1  0  0  0
  7  8  1  0  0  0
  7 31  1  0  0  0
  7 32  1  0  0  0
  8  9  1  0  0  0
  9 14  2  0  0  0
  9 10  1  0  0  0
 10 11  1  0  0  0
 11 15  2  0  0  0
 11 12  1  0  0  0
 12 13  2  0  0  0
 13 14  1  0  0  0
 13 16  1  0  0  0
 16 17  1  0  0  0
 17 18  1  0  0  0
 17 33  1  0  0  0
 17 34  1  0  0  0
 18 19  2  0  0  0
 18 23  1  0  0  0
 19 20  1  0  0  0
 19 35  1  0  0  0
 20 21  2  0  0  0
 20 36  1  0  0  0
 21 22  1  0  0  0
 21 37  1  0  0  0
 22 23  2  0  0  0
 22 38  1  0  0  0
 23 39  1  0  0  0
 24 25  2  0  0  0
 24 26  1  0  0  0
M  CHG  3  10  -1  24   1  26  -1
M  END
> <chembl_id>
CHEMBL1836467

> <chembl_pref_name>
None

> <s_m_source_file>
sdf/inactives_sanitized.sdf

> <i_m_source_file_index>
217

> <i_lp_mmshare_version>
49012

> <i_m_ct_stereo_status>
1

> <i_f3d_flags>
0

> <s_epik_input>
Tz1bTitdKFtPLV0pYyhbY0hdMSlbY0hdW2NIXVtjSF1jMVtDSDJdU2MyW25IXWMoPU8pbmMobjIpU1tDSDJdYzNbY0hdW2NIXVtjSF1bY0hdW2NIXTM=

> <s_epik_cmdline>
J2VwaWtfcHl0aG9uJywgJy1waHQnLCAnMC41JywgJy1waCcsICc3LjUnLCAnLW50JywgJy1tYScsICcyMDAnLCAnLWltYWUnLCAnPGluZmlsZS5tYWU+JywgJy1vbWFlJywgJzxvdXRmaWxlLm1hZT4n

> <r_lp_tautomer_probability>
1

> <r_epik_Ionization_Penalty>
  0.3245

> <r_epik_Ionization_Penalty_Charging>
  0.0003

> <r_epik_Ionization_Penalty_Neutral>
  0.3241

> <r_epik_State_Penalty>
 -0.0000

> <r_epik_Charging_Adjusted_Penalty>
0.000330722952361958

> <i_epik_Tot_Q>
-1

> <i_epik_Tot_abs_Q>
3

> <s_lp_Force_Field>
OPLS3e

> <r_lp_Energy>
44.317581

> <b_lp_Chiralities_Consistent>
1

> <s_lp_Variant>
sdf/inactives_sanitized.sdf:217-1

$$$$
sdf/inactives_sanitized.sdf:218
                    3D
 Schrodinger Suite 2020-1.
 37 39  0  0  1  0            999 V2000
   -1.2461    1.9526    0.6186 C   0  0  0  0  0  0
   -2.3393    1.1505    0.9656 C   0  0  0  0  0  0
   -3.6270    1.6871    0.9889 C   0  0  0  0  0  0
   -3.8302    3.0280    0.6639 C   0  0  0  0  0  0
   -2.7454    3.8328    0.3157 C   0  0  0  0  0  0
   -1.4560    3.2990    0.2920 C   0  0  0  0  0  0
    0.1536    1.3582    0.5918 C   0  0  0  0  0  0
    0.6524    0.9267   -1.1085 S   0  0  0  0  0  0
    2.3001    0.2289   -0.8550 C   0  0  0  0  0  0
    2.8887   -0.1227   -1.9513 N   0  5  0  0  0  0
    4.1341   -0.6529   -1.8946 C   0  0  0  0  0  0
    4.7329   -0.8252   -0.6013 N   0  0  0  0  0  0
    4.0455   -0.4504    0.4336 C   0  0  0  0  0  0
    2.7729    0.1378    0.3543 N   0  0  0  0  0  0
    4.7291   -0.9786   -2.9193 O   0  0  0  0  0  0
    4.7996   -0.7439    2.0470 S   0  0  0  0  0  0
    3.5220   -0.0975    3.1738 C   0  0  0  0  0  0
    3.9383   -0.2670    4.6254 C   0  0  0  0  0  0
    4.6741    0.7366    5.2617 C   0  0  0  0  0  0
    5.0456    0.5864    6.5953 C   0  0  0  0  0  0
    4.6770   -0.5647    7.2887 C   0  0  0  0  0  0
    3.9403   -1.5672    6.6612 C   0  0  0  0  0  0
    3.5687   -1.4177    5.3276 C   0  0  0  0  0  0
   -0.4143    4.0928   -0.0491 F   0  0  0  0  0  0
   -2.1934    0.1096    1.2160 H   0  0  0  0  0  0
   -4.4671    1.0635    1.2574 H   0  0  0  0  0  0
   -4.8272    3.4430    0.6807 H   0  0  0  0  0  0
   -2.9040    4.8708    0.0630 H   0  0  0  0  0  0
    0.8584    2.0753    1.0158 H   0  0  0  0  0  0
    0.1905    0.4714    1.2267 H   0  0  0  0  0  0
    3.3437    0.9590    2.9663 H   0  0  0  0  0  0
    2.5766   -0.6151    3.0028 H   0  0  0  0  0  0
    4.9603    1.6291    4.7241 H   0  0  0  0  0  0
    5.6164    1.3587    7.0893 H   0  0  0  0  0  0
    4.9654   -0.6811    8.3229 H   0  0  0  0  0  0
    3.6587   -2.4560    7.2066 H   0  0  0  0  0  0
    2.9974   -2.1952    4.8412 H   0  0  0  0  0  0
  1  6  1  0  0  0
  1  2  2  0  0  0
  1  7  1  0  0  0
  2  3  1  0  0  0
  2 25  1  0  0  0
  3  4  2  0  0  0
  3 26  1  0  0  0
  4  5  1  0  0  0
  4 27  1  0  0  0
  5  6  2  0  0  0
  5 28  1  0  0  0
  6 24  1  0  0  0
  7  8  1  0  0  0
  7 29  1  0  0  0
  7 30  1  0  0  0
  8  9  1  0  0  0
  9 14  2  0  0  0
  9 10  1  0  0  0
 10 11  1  0  0  0
 11 12  1  0  0  0
 11 15  2  0  0  0
 12 13  2  0  0  0
 13 14  1  0  0  0
 13 16  1  0  0  0
 16 17  1  0  0  0
 17 18  1  0  0  0
 17 31  1  0  0  0
 17 32  1  0  0  0
 18 19  2  0  0  0
 18 23  1  0  0  0
 19 20  1  0  0  0
 19 33  1  0  0  0
 20 21  2  0  0  0
 20 34  1  0  0  0
 21 22  1  0  0  0
 21 35  1  0  0  0
 22 23  2  0  0  0
 22 36  1  0  0  0
 23 37  1  0  0  0
M  CHG  1  10  -1
M  END
> <chembl_id>
CHEMBL1836463

> <chembl_pref_name>
None

> <s_m_source_file>
sdf/inactives_sanitized.sdf

> <i_m_source_file_index>
218

> <i_lp_mmshare_version>
49012

> <i_m_ct_stereo_status>
1

> <i_f3d_flags>
0

> <s_epik_input>
RmMxW2NIXVtjSF1bY0hdW2NIXWMxW0NIMl1TYzJbbkhdYyg9TyluYyhuMilTW0NIMl1jM1tjSF1bY0hdW2NIXVtjSF1bY0hdMw==

> <s_epik_cmdline>
J2VwaWtfcHl0aG9uJywgJy1waHQnLCAnMC41JywgJy1waCcsICc3LjUnLCAnLW50JywgJy1tYScsICcyMDAnLCAnLWltYWUnLCAnPGluZmlsZS5tYWU+JywgJy1vbWFlJywgJzxvdXRmaWxlLm1hZT4n

> <r_lp_tautomer_probability>
1

> <r_epik_Ionization_Penalty>
  0.3245

> <r_epik_Ionization_Penalty_Charging>
  0.0003

> <r_epik_Ionization_Penalty_Neutral>
  0.3241

> <r_epik_State_Penalty>
 -0.0000

> <r_epik_Charging_Adjusted_Penalty>
0.000330722952361958

> <i_epik_Tot_Q>
-1

> <i_epik_Tot_abs_Q>
1

> <s_lp_Force_Field>
OPLS3e

> <r_lp_Energy>
42.222938

> <b_lp_Chiralities_Consistent>
1

> <s_lp_Variant>
sdf/inactives_sanitized.sdf:218-1

$$$$
sdf/inactives_sanitized.sdf:219
                    3D
 Schrodinger Suite 2020-1.
 31 33  0  0  1  0            999 V2000
   -3.1331    2.3796   -0.4375 N   0  0  0  0  0  0
   -4.4684    2.2518   -0.2676 C   0  0  0  0  0  0
   -5.0832    1.0512    0.0537 C   0  0  0  0  0  0
   -4.2931   -0.0822    0.2025 C   0  0  0  0  0  0
   -2.8814   -0.0017    0.0215 C   0  0  0  0  0  0
   -2.0179   -1.1267    0.1525 C   0  0  0  0  0  0
   -0.6451   -0.9540    0.0002 C   0  0  0  0  0  0
   -0.0653    0.2824   -0.2893 C   0  0  0  0  0  0
   -0.9010    1.4133   -0.4567 C   0  0  0  0  0  0
   -2.3230    1.2803   -0.2939 C   0  0  0  0  0  0
    1.4472    0.3199   -0.4201 C   0  0  0  0  0  0
    2.0554   -0.6077   -0.9578 O   0  0  0  0  0  0
    2.0719    1.3733    0.1366 N   0  0  0  0  0  0
   -2.5293   -2.4779    0.4469 N   0  3  0  0  0  0
   -2.0536   -3.0704    1.4103 O   0  0  0  0  0  0
   -3.3788   -2.9516   -0.3009 O   0  5  0  0  0  0
   -0.4124    2.5565   -0.7664 O   0  5  0  0  0  0
    3.5171    1.5813    0.1167 C   0  0  0  0  0  0
    4.1854    2.0465    1.3929 C   0  0  0  0  0  0
    4.3912    0.6325    0.9170 C   0  0  0  0  0  0
    4.0561    2.0547   -1.1708 C   0  0  0  0  0  0
    4.4798    2.4264   -2.1814 N   0  0  0  0  0  0
   -5.0538    3.1507   -0.3918 H   0  0  0  0  0  0
   -6.1539    0.9982    0.1863 H   0  0  0  0  0  0
   -4.7617   -1.0193    0.4615 H   0  0  0  0  0  0
   -0.0127   -1.8246    0.1147 H   0  0  0  0  0  0
    1.5069    2.1609    0.4204 H   0  0  0  0  0  0
    5.0175    2.7475    1.3235 H   0  0  0  0  0  0
    3.5753    2.2114    2.2816 H   0  0  0  0  0  0
    5.3664    0.3525    0.5180 H   0  0  0  0  0  0
    3.9215   -0.1788    1.4744 H   0  0  0  0  0  0
  1  2  2  0  0  0
  1 10  1  0  0  0
  2  3  1  0  0  0
  2 23  1  0  0  0
  3  4  2  0  0  0
  3 24  1  0  0  0
  4  5  1  0  0  0
  4 25  1  0  0  0
  5  6  2  0  0  0
  5 10  1  0  0  0
  6  7  1  0  0  0
  6 14  1  0  0  0
  7  8  2  0  0  0
  7 26  1  0  0  0
  8  9  1  0  0  0
  8 11  1  0  0  0
  9 10  2  0  0  0
  9 17  1  0  0  0
 11 12  2  0  0  0
 11 13  1  0  0  0
 13 18  1  0  0  0
 13 27  1  0  0  0
 14 15  2  0  0  0
 14 16  1  0  0  0
 18 19  1  0  0  0
 18 20  1  0  0  0
 18 21  1  0  0  0
 19 20  1  0  0  0
 19 28  1  0  0  0
 19 29  1  0  0  0
 20 30  1  0  0  0
 20 31  1  0  0  0
 21 22  3  0  0  0
M  CHG  3  14   1  16  -1  17  -1
M  END
> <chembl_id>
CHEMBL4228576

> <chembl_pref_name>
None

> <s_m_source_file>
sdf/inactives_sanitized.sdf

> <i_m_source_file_index>
219

> <i_lp_mmshare_version>
49012

> <i_m_ct_stereo_status>
1

> <i_f3d_flags>
0

> <s_epik_input>
W2NIXTFbY0hdW2NIXW5jKGMxMiljKFtPSF0pYyhbY0hdYzJbTitdKD1PKVtPLV0pQyg9TylbTkhdQzMoQyNOKVtDSDJdW0NIMl0z

> <s_epik_cmdline>
J2VwaWtfcHl0aG9uJywgJy1waHQnLCAnMC41JywgJy1waCcsICc3LjUnLCAnLW50JywgJy1tYScsICcyMDAnLCAnLWltYWUnLCAnPGluZmlsZS5tYWU+JywgJy1vbWFlJywgJzxvdXRmaWxlLm1hZT4n

> <r_lp_tautomer_probability>
1

> <r_epik_Ionization_Penalty>
  0.0000

> <r_epik_Ionization_Penalty_Charging>
  0.0000

> <r_epik_Ionization_Penalty_Neutral>
  0.0000

> <r_epik_State_Penalty>
 -0.0000

> <r_epik_Charging_Adjusted_Penalty>
1.39074434334004e-05

> <i_epik_Tot_Q>
-1

> <i_epik_Tot_abs_Q>
3

> <s_lp_Force_Field>
OPLS3e

> <r_lp_Energy>
35.880508

> <b_lp_Chiralities_Consistent>
1

> <s_lp_Variant>
sdf/inactives_sanitized.sdf:219-1

$$$$
sdf/inactives_sanitized.sdf:220
                    3D
 Schrodinger Suite 2020-1.
 20 21  0  0  1  0            999 V2000
   -0.6172    1.2068    0.0000 N   0  0  0  0  0  0
    0.0337    0.0249   -0.0000 C   0  0  0  0  0  0
   -0.6172   -1.1986   -0.0000 C   0  0  0  0  0  0
   -2.0070   -1.2137   -0.0000 C   0  0  0  0  0  0
   -2.7619    0.0049   -0.0000 C   0  0  0  0  0  0
   -4.2107    0.0892   -0.0000 C   0  0  0  0  0  0
   -4.7903    1.3659   -0.0000 C   0  0  0  0  0  0
   -4.0403    2.5281   -0.0000 C   0  0  0  0  0  0
   -2.6550    2.4843    0.0000 C   0  0  0  0  0  0
   -1.9878    1.2213   -0.0000 C   0  0  0  0  0  0
    1.4851    0.1070    0.0000 C   0  0  0  0  0  0
    2.6408    0.1709    0.0000 N   0  0  0  0  0  0
   -5.1360   -1.0869   -0.0000 N   0  3  0  0  0  0
   -6.3468   -0.8778   -0.0000 O   0  0  0  0  0  0
   -4.7006   -2.2296   -0.0000 O   0  5  0  0  0  0
   -2.0274    3.5938    0.0000 O   0  5  0  0  0  0
   -0.0660   -2.1287   -0.0000 H   0  0  0  0  0  0
   -2.4661   -2.1843   -0.0000 H   0  0  0  0  0  0
   -5.8643    1.4816   -0.0000 H   0  0  0  0  0  0
   -4.5567    3.4781   -0.0000 H   0  0  0  0  0  0
  1  2  2  0  0  0
  1 10  1  0  0  0
  2  3  1  0  0  0
  2 11  1  0  0  0
  3  4  2  0  0  0
  3 17  1  0  0  0
  4  5  1  0  0  0
  4 18  1  0  0  0
  5  6  2  0  0  0
  5 10  1  0  0  0
  6  7  1  0  0  0
  6 13  1  0  0  0
  7  8  2  0  0  0
  7 19  1  0  0  0
  8  9  1  0  0  0
  8 20  1  0  0  0
  9 10  2  0  0  0
  9 16  1  0  0  0
 11 12  3  0  0  0
 13 14  2  0  0  0
 13 15  1  0  0  0
M  CHG  3  13   1  15  -1  16  -1
M  END
> <chembl_id>
CHEMBL4228345

> <chembl_pref_name>
None

> <s_m_source_file>
sdf/inactives_sanitized.sdf

> <i_m_source_file_index>
220

> <i_lp_mmshare_version>
49012

> <i_m_ct_stereo_status>
1

> <i_f3d_flags>
0

> <s_epik_input>
W2NIXTFbY0hdYyhDI04pbmMoYzEyKWMoW09IXSlbY0hdW2NIXWMyW04rXSg9TylbTy1d

> <s_epik_cmdline>
J2VwaWtfcHl0aG9uJywgJy1waHQnLCAnMC41JywgJy1waCcsICc3LjUnLCAnLW50JywgJy1tYScsICcyMDAnLCAnLWltYWUnLCAnPGluZmlsZS5tYWU+JywgJy1vbWFlJywgJzxvdXRmaWxlLm1hZT4n

> <r_lp_tautomer_probability>
1

> <r_epik_Ionization_Penalty>
  0.0001

> <r_epik_Ionization_Penalty_Charging>
  0.0001

> <r_epik_Ionization_Penalty_Neutral>
  0.0000

> <r_epik_State_Penalty>
 -0.0000

> <r_epik_Charging_Adjusted_Penalty>
5.95921446390349e-05

> <i_epik_Tot_Q>
-1

> <i_epik_Tot_abs_Q>
3

> <s_lp_Force_Field>
OPLS3e

> <r_lp_Energy>
27.533986

> <b_lp_Chiralities_Consistent>
1

> <s_lp_Variant>
sdf/inactives_sanitized.sdf:220-1

$$$$
sdf/inactives_sanitized.sdf:221
                    3D
 Schrodinger Suite 2020-1.
 40 42  0  0  1  0            999 V2000
   -3.4727    1.7371   -1.6652 N   0  0  0  0  0  0
   -4.7847    1.4796   -1.4632 C   0  0  0  0  0  0
   -5.2445    0.5178   -0.5763 C   0  0  0  0  0  0
   -4.3148   -0.2274    0.1390 C   0  0  0  0  0  0
   -2.9194   -0.0027   -0.0462 C   0  0  0  0  0  0
   -1.9149   -0.7356    0.6529 C   0  0  0  0  0  0
   -0.5741   -0.4241    0.4440 C   0  0  0  0  0  0
   -0.1710    0.5762   -0.4372 C   0  0  0  0  0  0
   -1.1349    1.3018   -1.1682 C   0  0  0  0  0  0
   -2.5291    1.0213   -0.9719 C   0  0  0  0  0  0
    1.3152    0.8157   -0.5772 C   0  0  0  0  0  0
    1.9891   -0.0118   -1.1944 O   0  0  0  0  0  0
    1.8391    1.9271    0.0065 N   0  0  0  0  0  0
   -2.2464   -1.8198    1.5956 N   0  3  0  0  0  0
   -1.7717   -1.7583    2.7254 O   0  0  0  0  0  0
   -2.9498   -2.7415    1.1947 O   0  5  0  0  0  0
   -0.7752    2.2079   -2.0002 O   0  5  0  0  0  0
    1.0556    2.8358    0.8568 C   0  0  0  0  0  0
    0.9201    2.3429    2.2388 C   0  0  0  0  0  0
    0.8132    1.9557    3.3239 N   0  0  0  0  0  0
    3.2957    2.1354    0.0760 C   0  0  0  0  0  0
    3.9435    1.7222    1.3941 C   0  0  0  0  0  0
    3.8111    0.4141    1.8718 C   0  0  0  0  0  0
    4.4037    0.0499    3.0776 C   0  0  0  0  0  0
    5.1332    0.9917    3.7999 C   0  0  0  0  0  0
    5.2767    2.2940    3.3264 C   0  0  0  0  0  0
    4.6827    2.6592    2.1209 C   0  0  0  0  0  0
   -5.4818    2.0749   -2.0343 H   0  0  0  0  0  0
   -6.3034    0.3518   -0.4433 H   0  0  0  0  0  0
   -4.6644   -0.9714    0.8384 H   0  0  0  0  0  0
    0.1747   -0.9848    0.9883 H   0  0  0  0  0  0
    0.0476    2.9848    0.4732 H   0  0  0  0  0  0
    1.5195    3.8222    0.8851 H   0  0  0  0  0  0
    3.4924    3.1923   -0.1082 H   0  0  0  0  0  0
    3.8077    1.6049   -0.7285 H   0  0  0  0  0  0
    3.2472   -0.3202    1.3155 H   0  0  0  0  0  0
    4.2978   -0.9580    3.4508 H   0  0  0  0  0  0
    5.5927    0.7092    4.7358 H   0  0  0  0  0  0
    5.8451    3.0173    3.8925 H   0  0  0  0  0  0
    4.7944    3.6706    1.7582 H   0  0  0  0  0  0
  1  2  2  0  0  0
  1 10  1  0  0  0
  2  3  1  0  0  0
  2 28  1  0  0  0
  3  4  2  0  0  0
  3 29  1  0  0  0
  4  5  1  0  0  0
  4 30  1  0  0  0
  5  6  2  0  0  0
  5 10  1  0  0  0
  6  7  1  0  0  0
  6 14  1  0  0  0
  7  8  2  0  0  0
  7 31  1  0  0  0
  8  9  1  0  0  0
  8 11  1  0  0  0
  9 10  2  0  0  0
  9 17  1  0  0  0
 11 12  2  0  0  0
 11 13  1  0  0  0
 13 18  1  0  0  0
 13 21  1  0  0  0
 14 15  2  0  0  0
 14 16  1  0  0  0
 18 19  1  0  0  0
 18 32  1  0  0  0
 18 33  1  0  0  0
 19 20  3  0  0  0
 21 22  1  0  0  0
 21 34  1  0  0  0
 21 35  1  0  0  0
 22 23  2  0  0  0
 22 27  1  0  0  0
 23 24  1  0  0  0
 23 36  1  0  0  0
 24 25  2  0  0  0
 24 37  1  0  0  0
 25 26  1  0  0  0
 25 38  1  0  0  0
 26 27  2  0  0  0
 26 39  1  0  0  0
 27 40  1  0  0  0
M  CHG  3  14   1  16  -1  17  -1
M  END
> <chembl_id>
CHEMBL4228186

> <chembl_pref_name>
None

> <s_m_source_file>
sdf/inactives_sanitized.sdf

> <i_m_source_file_index>
221

> <i_lp_mmshare_version>
49012

> <i_m_ct_stereo_status>
1

> <i_f3d_flags>
0

> <s_epik_input>
W2NIXTFbY0hdW2NIXW5jKGMxMiljKFtPSF0pYyhbY0hdYzJbTitdKD1PKVtPLV0pQyg9TylOKFtDSDJdQyNOKVtDSDJdYzNbY0hdW2NIXVtjSF1bY0hdW2NIXTM=

> <s_epik_cmdline>
J2VwaWtfcHl0aG9uJywgJy1waHQnLCAnMC41JywgJy1waCcsICc3LjUnLCAnLW50JywgJy1tYScsICcyMDAnLCAnLWltYWUnLCAnPGluZmlsZS5tYWU+JywgJy1vbWFlJywgJzxvdXRmaWxlLm1hZT4n

> <r_lp_tautomer_probability>
1

> <r_epik_Ionization_Penalty>
  0.0000

> <r_epik_Ionization_Penalty_Charging>
  0.0000

> <r_epik_Ionization_Penalty_Neutral>
  0.0000

> <r_epik_State_Penalty>
 -0.0000

> <r_epik_Charging_Adjusted_Penalty>
2.98313207299644e-06

> <i_epik_Tot_Q>
-1

> <i_epik_Tot_abs_Q>
3

> <s_lp_Force_Field>
OPLS3e

> <r_lp_Energy>
46.458661

> <b_lp_Chiralities_Consistent>
1

> <s_lp_Variant>
sdf/inactives_sanitized.sdf:221-1

$$$$
sdf/inactives_sanitized.sdf:222
                    3D
 Schrodinger Suite 2020-1.
 34 36  0  0  1  0            999 V2000
    0.1769    0.6533   -0.6442 C   0  0  0  0  0  0
   -0.4364   -0.2325   -1.2446 O   0  0  0  0  0  0
   -1.8950    2.3933    2.1389 O   0  0  0  0  0  0
   -0.4770    2.2444    2.2324 C   0  0  0  0  0  0
    0.1929    2.6205    0.8909 C   0  0  0  0  0  0
   -0.4261    1.7628   -0.1360 N   0  0  0  0  0  0
   -1.8815    1.9443   -0.2634 C   0  0  0  0  0  0
   -2.4869    1.5909    1.1153 C   0  0  0  0  0  0
    4.9245    2.0551   -1.3696 N   0  0  0  0  0  0
    6.2441    1.8616   -1.1472 C   0  0  0  0  0  0
    6.7430    0.8142   -0.3874 C   0  0  0  0  0  0
    5.8467   -0.0898    0.1704 C   0  0  0  0  0  0
    4.4460    0.0637   -0.0438 C   0  0  0  0  0  0
    3.4760   -0.8314    0.4953 C   0  0  0  0  0  0
    2.1238   -0.5873    0.2713 C   0  0  0  0  0  0
    1.6748    0.5024   -0.4721 C   0  0  0  0  0  0
    2.6089    1.3915   -1.0477 C   0  0  0  0  0  0
    4.0128    1.1825   -0.8297 C   0  0  0  0  0  0
    3.8559   -2.0154    1.2870 N   0  3  0  0  0  0
    3.3519   -2.1438    2.3982 O   0  0  0  0  0  0
    4.6295   -2.8243    0.7847 O   0  5  0  0  0  0
    2.2164    2.3777   -1.7656 O   0  5  0  0  0  0
   -0.0958    2.8818    3.0302 H   0  0  0  0  0  0
   -0.2235    1.2218    2.5191 H   0  0  0  0  0  0
   -0.1076    3.6311    0.6114 H   0  0  0  0  0  0
    1.2817    2.6569    0.8978 H   0  0  0  0  0  0
   -2.0072    3.0117   -0.4497 H   0  0  0  0  0  0
   -2.3333    1.4532   -1.1265 H   0  0  0  0  0  0
   -3.5640    1.7568    1.1030 H   0  0  0  0  0  0
   -2.3483    0.5315    1.3409 H   0  0  0  0  0  0
    6.9140    2.5803   -1.5956 H   0  0  0  0  0  0
    7.8060    0.7032   -0.2316 H   0  0  0  0  0  0
    6.2249   -0.9035    0.7701 H   0  0  0  0  0  0
    1.4026   -1.2749    0.6932 H   0  0  0  0  0  0
  1  2  2  0  0  0
  1  6  1  0  0  0
  1 16  1  0  0  0
  3  4  1  0  0  0
  3  8  1  0  0  0
  4  5  1  0  0  0
  4 23  1  0  0  0
  4 24  1  0  0  0
  5  6  1  0  0  0
  5 25  1  0  0  0
  5 26  1  0  0  0
  6  7  1  0  0  0
  7  8  1  0  0  0
  7 27  1  0  0  0
  7 28  1  0  0  0
  8 29  1  0  0  0
  8 30  1  0  0  0
  9 10  2  0  0  0
  9 18  1  0  0  0
 10 11  1  0  0  0
 10 31  1  0  0  0
 11 12  2  0  0  0
 11 32  1  0  0  0
 12 13  1  0  0  0
 12 33  1  0  0  0
 13 14  2  0  0  0
 13 18  1  0  0  0
 14 15  1  0  0  0
 14 19  1  0  0  0
 15 16  2  0  0  0
 15 34  1  0  0  0
 16 17  1  0  0  0
 17 18  2  0  0  0
 17 22  1  0  0  0
 19 20  2  0  0  0
 19 21  1  0  0  0
M  CHG  3  19   1  21  -1  22  -1
M  END
> <chembl_id>
CHEMBL4227268

> <chembl_pref_name>
None

> <s_m_source_file>
sdf/inactives_sanitized.sdf

> <i_m_source_file_index>
222

> <i_lp_mmshare_version>
49012

> <i_m_ct_stereo_status>
1

> <i_f3d_flags>
0

> <s_epik_input>
W0NIMl0xW0NIMl1PW0NIMl1bQ0gyXU4xQyg9TyljKFtjSF1jMltOK10oPU8pW08tXSljKFtPSF0pYyhjMjMpbltjSF1bY0hdW2NIXTM=

> <s_epik_cmdline>
J2VwaWtfcHl0aG9uJywgJy1waHQnLCAnMC41JywgJy1waCcsICc3LjUnLCAnLW50JywgJy1tYScsICcyMDAnLCAnLWltYWUnLCAnPGluZmlsZS5tYWU+JywgJy1vbWFlJywgJzxvdXRmaWxlLm1hZT4n

> <r_lp_tautomer_probability>
1

> <r_epik_Ionization_Penalty>
  0.0000

> <r_epik_Ionization_Penalty_Charging>
  0.0000

> <r_epik_Ionization_Penalty_Neutral>
  0.0000

> <r_epik_State_Penalty>
 -0.0000

> <r_epik_Charging_Adjusted_Penalty>
6.60265837316688e-06

> <i_epik_Tot_Q>
-1

> <i_epik_Tot_abs_Q>
3

> <s_lp_Force_Field>
OPLS3e

> <r_lp_Energy>
34.189431

> <b_lp_Chiralities_Consistent>
1

> <s_lp_Variant>
sdf/inactives_sanitized.sdf:222-1

$$$$
sdf/inactives_sanitized.sdf:223
                    3D
 Schrodinger Suite 2020-1.
 84 85  0  0  1  0            999 V2000
   -0.9456    1.0442    0.1675 C   0  0  0  0  0  0
   -0.1536    0.0800   -0.3289 N   0  0  0  0  0  0
   -0.5319    2.0968    0.6572 O   0  0  0  0  0  0
    1.3080    0.1063   -0.3240 C   0  0  2  0  0  0
    1.8663   -0.3921   -1.6686 C   0  0  0  0  0  0
    1.2105   -1.1766   -2.3564 O   0  0  0  0  0  0
    3.0821    0.0725   -1.9983 N   0  0  0  0  0  0
    3.8471   -0.3153   -3.1832 C   0  0  2  0  0  0
    5.3233   -0.5269   -2.7911 C   0  0  0  0  0  0
    5.9153   -1.6361   -3.2436 N   0  0  0  0  0  0
    5.9156    0.3162   -2.1180 O   0  0  0  0  0  0
    1.8107   -0.6999    0.8993 C   0  0  0  0  0  0
    3.6643    0.7742   -4.2666 C   0  0  0  0  0  0
    3.3158   -0.8754    1.0251 C   0  0  0  0  0  0
    3.9443   -2.0461    0.5478 C   0  0  0  0  0  0
    5.3282   -2.1544    0.5815 C   0  0  0  0  0  0
    6.1010   -1.1037    1.0598 C   0  0  0  0  0  0
    5.4982    0.0683    1.4996 C   0  0  0  0  0  0
    4.1157    0.1960    1.4756 C   0  0  0  0  0  0
    4.4308    0.5161   -5.5779 C   0  0  0  0  0  0
    4.1584    1.5893   -6.6422 C   0  0  0  0  0  0
    4.9468    1.3458   -7.9369 C   0  0  0  0  0  0
    4.6839    2.3987   -8.9328 N   0  3  0  0  0  0
   -2.4693    0.7802    0.0664 C   0  0  2  0  0  0
   -3.0791    1.4015   -1.2171 C   0  0  0  0  0  0
   -2.6267    0.7316   -2.5299 C   0  0  0  0  0  0
   -3.2105    1.3129    1.2233 N   0  0  0  0  0  0
   -3.1445    0.7029    2.4718 C   0  0  0  0  0  0
   -3.8955    1.4084    3.3390 O   0  0  0  0  0  0
   -2.5080   -0.3153    2.7556 O   0  0  0  0  0  0
   -3.9958    1.0172    4.7059 C   0  0  0  0  0  0
   -4.9060    1.9400    5.5128 C   0  0  0  0  0  0
   -5.1782    1.5973    6.8400 C   0  0  0  0  0  0
   -5.9988    2.4079    7.6200 C   0  0  0  0  0  0
   -6.5479    3.5642    7.0713 C   0  0  0  0  0  0
   -6.2831    3.9170    5.7502 C   0  0  0  0  0  0
   -5.4623    3.1065    4.9700 C   0  0  0  0  0  0
   -3.3450    1.2996   -3.7619 C   0  0  0  0  0  0
   -2.8871    0.6328   -5.0665 C   0  0  0  0  0  0
   -3.5979    1.1879   -6.2311 N   0  3  0  0  0  0
   -0.5717   -0.7471   -0.7301 H   0  0  0  0  0  0
    1.6507    1.1373   -0.2131 H   0  0  0  0  0  0
    3.5553    0.7013   -1.3648 H   0  0  0  0  0  0
    3.4534   -1.2568   -3.5735 H   0  0  0  0  0  0
    5.3988   -2.3033   -3.7979 H   0  0  0  0  0  0
    6.8839   -1.8178   -3.0232 H   0  0  0  0  0  0
    1.4662   -0.2019    1.8070 H   0  0  0  0  0  0
    1.3446   -1.6867    0.9110 H   0  0  0  0  0  0
    2.6013    0.8660   -4.4945 H   0  0  0  0  0  0
    3.9704    1.7412   -3.8639 H   0  0  0  0  0  0
    3.3524   -2.8587    0.1526 H   0  0  0  0  0  0
    5.8065   -3.0541    0.2235 H   0  0  0  0  0  0
    7.1772   -1.1929    1.0772 H   0  0  0  0  0  0
    6.1077    0.8866    1.8534 H   0  0  0  0  0  0
    3.6558    1.1177    1.8015 H   0  0  0  0  0  0
    5.5031    0.4824   -5.3829 H   0  0  0  0  0  0
    4.1591   -0.4649   -5.9697 H   0  0  0  0  0  0
    3.0907    1.6159   -6.8640 H   0  0  0  0  0  0
    4.4118    2.5708   -6.2385 H   0  0  0  0  0  0
    6.0174    1.3227   -7.7297 H   0  0  0  0  0  0
    4.6811    0.3798   -8.3679 H   0  0  0  0  0  0
    5.2170    2.2115   -9.7703 H   0  0  0  0  0  0
    4.9566    3.2956   -8.5568 H   0  0  0  0  0  0
   -2.6478   -0.2980    0.0272 H   0  0  0  0  0  0
   -4.1669    1.3244   -1.1652 H   0  0  0  0  0  0
   -2.8629    2.4712   -1.2599 H   0  0  0  0  0  0
   -1.5512    0.8578   -2.6584 H   0  0  0  0  0  0
   -2.8042   -0.3429   -2.4684 H   0  0  0  0  0  0
   -3.7513    2.1578    1.1095 H   0  0  0  0  0  0
   -4.3877    0.0001    4.7640 H   0  0  0  0  0  0
   -3.0038    1.0197    5.1606 H   0  0  0  0  0  0
   -4.7531    0.7017    7.2696 H   0  0  0  0  0  0
   -6.2076    2.1415    8.6457 H   0  0  0  0  0  0
   -7.1842    4.1932    7.6762 H   0  0  0  0  0  0
   -6.7117    4.8162    5.3326 H   0  0  0  0  0  0
   -5.2651    3.3959    3.9484 H   0  0  0  0  0  0
   -4.4219    1.1695   -3.6443 H   0  0  0  0  0  0
   -3.1707    2.3751   -3.8181 H   0  0  0  0  0  0
   -1.8149    0.7740   -5.2090 H   0  0  0  0  0  0
   -3.0688   -0.4420   -5.0260 H   0  0  0  0  0  0
   -3.2818    0.7255   -7.0719 H   0  0  0  0  0  0
   -3.4110    2.1781   -6.3029 H   0  0  0  0  0  0
   -4.5916    1.0411   -6.1225 H   0  0  0  0  0  0
    3.6996    2.4143   -9.1592 H   0  0  0  0  0  0
  1  2  1  0  0  0
  1  3  2  0  0  0
  1 24  1  0  0  0
  2  4  1  0  0  0
  2 41  1  0  0  0
  4  5  1  0  0  0
  4 12  1  0  0  0
  4 42  1  0  0  0
  5  6  2  0  0  0
  5  7  1  0  0  0
  7  8  1  0  0  0
  7 43  1  0  0  0
  8  9  1  0  0  0
  8 13  1  0  0  0
  8 44  1  0  0  0
  9 10  1  0  0  0
  9 11  2  0  0  0
 10 45  1  0  0  0
 10 46  1  0  0  0
 12 14  1  0  0  0
 12 47  1  0  0  0
 12 48  1  0  0  0
 13 20  1  0  0  0
 13 49  1  0  0  0
 13 50  1  0  0  0
 14 15  2  0  0  0
 14 19  1  0  0  0
 15 16  1  0  0  0
 15 51  1  0  0  0
 16 17  2  0  0  0
 16 52  1  0  0  0
 17 18  1  0  0  0
 17 53  1  0  0  0
 18 19  2  0  0  0
 18 54  1  0  0  0
 19 55  1  0  0  0
 20 21  1  0  0  0
 20 56  1  0  0  0
 20 57  1  0  0  0
 21 22  1  0  0  0
 21 58  1  0  0  0
 21 59  1  0  0  0
 22 23  1  0  0  0
 22 60  1  0  0  0
 22 61  1  0  0  0
 23 62  1  0  0  0
 23 63  1  0  0  0
 23 84  1  0  0  0
 24 25  1  0  0  0
 24 27  1  0  0  0
 24 64  1  0  0  0
 25 26  1  0  0  0
 25 65  1  0  0  0
 25 66  1  0  0  0
 26 38  1  0  0  0
 26 67  1  0  0  0
 26 68  1  0  0  0
 27 28  1  0  0  0
 27 69  1  0  0  0
 28 29  1  0  0  0
 28 30  2  0  0  0
 29 31  1  0  0  0
 31 32  1  0  0  0
 31 70  1  0  0  0
 31 71  1  0  0  0
 32 33  2  0  0  0
 32 37  1  0  0  0
 33 34  1  0  0  0
 33 72  1  0  0  0
 34 35  2  0  0  0
 34 73  1  0  0  0
 35 36  1  0  0  0
 35 74  1  0  0  0
 36 37  2  0  0  0
 36 75  1  0  0  0
 37 76  1  0  0  0
 38 39  1  0  0  0
 38 77  1  0  0  0
 38 78  1  0  0  0
 39 40  1  0  0  0
 39 79  1  0  0  0
 39 80  1  0  0  0
 40 81  1  0  0  0
 40 82  1  0  0  0
 40 83  1  0  0  0
M  CHG  2  23   1  40   1
M  END
> <chembl_id>
CHEMBL2382083

> <chembl_pref_name>
None

> <i_m_ct_stereo_status>
1

> <s_m_source_file>
sdf/inactives_sanitized.sdf

> <i_m_source_file_index>
223

> <i_lp_mmshare_version>
49012

> <i_f3d_flags>
0

> <s_epik_input>
W05IMl1bQ0gyXVtDSDJdW0NIMl1bQ0gyXVtDQEBIXShDKD1PKVtOSDJdKVtOSF1DKD1PKVtDQEhdKFtDSDJdYzFbY0hdW2NIXVtjSF1bY0hdW2NIXTEpW05IXUMoPU8pW0NASF0oW0NIMl1bQ0gyXVtDSDJdW0NIMl1bTkgyXSlbTkhdQyg9TylPW0NIMl1jMltjSF1bY0hdW2NIXVtjSF1bY0hdMg==

> <s_epik_cmdline>
J2VwaWtfcHl0aG9uJywgJy1waHQnLCAnMC41JywgJy1waCcsICc3LjUnLCAnLW50JywgJy1tYScsICcyMDAnLCAnLWltYWUnLCAnPGluZmlsZS5tYWU+JywgJy1vbWFlJywgJzxvdXRmaWxlLm1hZT4n

> <r_lp_tautomer_probability>
1

> <r_epik_Ionization_Penalty>
  0.0028

> <r_epik_Ionization_Penalty_Charging>
  0.0028

> <r_epik_Ionization_Penalty_Neutral>
  0.0000

> <r_epik_State_Penalty>
 -0.0000

> <r_epik_Charging_Adjusted_Penalty>
0.00279465256265022

> <i_epik_Tot_Q>
2

> <i_epik_Tot_abs_Q>
2

> <s_epik_Chemistry_Notes>
This compound has an ester and may undergo hydrolysis at high or low pH.

> <s_lp_Force_Field>
OPLS3e

> <r_lp_Energy>
31.493975

> <b_lp_Chiralities_Consistent>
1

> <s_lp_Variant>
sdf/inactives_sanitized.sdf:223-1

$$$$
sdf/inactives_sanitized.sdf:224
                    3D
 Schrodinger Suite 2020-1.
 70 73  0  0  1  0            999 V2000
   -2.8908    0.3821    1.8916 C   0  0  0  0  0  0
   -2.8525    1.4701    1.2170 N   0  0  0  0  0  0
   -0.7538   -0.2288   -0.0738 N   0  0  0  0  0  0
   -2.5752    1.4758   -0.2176 C   0  0  1  0  0  0
   -1.1453    0.9823   -0.5966 C   0  0  0  0  0  0
   -2.6674   -0.9708    1.3147 C   0  0  0  0  0  0
   -1.6607   -1.2495    0.3453 C   0  0  0  0  0  0
   -1.4683   -2.5972   -0.0154 C   0  0  0  0  0  0
   -2.2839   -3.6178    0.4584 C   0  0  0  0  0  0
   -3.3136   -3.3237    1.3371 C   0  0  0  0  0  0
   -3.4986   -2.0146    1.7610 C   0  0  0  0  0  0
   -3.1499    0.4658    3.3472 C   0  0  0  0  0  0
   -2.3840   -0.2939    4.2439 C   0  0  0  0  0  0
   -2.6197   -0.2113    5.6135 C   0  0  0  0  0  0
   -3.6179    0.6327    6.0928 C   0  0  0  0  0  0
   -4.3817    1.3978    5.2151 C   0  0  0  0  0  0
   -4.1475    1.3174    3.8449 C   0  0  0  0  0  0
   -3.7698    0.9719   -1.0852 C   0  0  0  0  0  0
   -0.4207    1.7188   -1.2732 O   0  0  0  0  0  0
   -3.5731   -0.2947   -1.7104 O   0  0  0  0  0  0
   -4.4690   -0.7775   -2.5930 C   0  0  0  0  0  0
   -4.0206   -2.0096   -3.0567 N   0  0  0  0  0  0
   -5.5101   -0.2019   -2.9194 O   0  0  0  0  0  0
   -4.6250   -2.8254   -4.0313 C   0  0  0  0  0  0
   -4.5372   -4.2298   -3.9166 C   0  0  0  0  0  0
   -5.1221   -5.0299   -4.9100 C   0  0  0  0  0  0
   -5.7744   -4.4568   -6.0003 C   0  0  0  0  0  0
   -5.8463   -3.0719   -6.1177 C   0  0  0  0  0  0
   -5.2719   -2.2604   -5.1429 C   0  0  0  0  0  0
   -3.8290   -4.8974   -2.7295 C   0  0  0  0  0  0
   -3.8308   -6.2297   -2.8056 F   0  0  0  0  0  0
   -2.5584   -4.4959   -2.6738 F   0  0  0  0  0  0
   -4.4418   -4.5537   -1.5964 F   0  0  0  0  0  0
   -6.4869   -5.4639   -7.2076 Cl  0  0  0  0  0  0
    0.6844   -0.5705   -0.2665 C   0  0  0  0  0  0
    1.5268   -0.0827    0.9329 C   0  0  0  0  0  0
    2.8410   -0.3568    0.8589 N   0  0  0  0  0  0
    1.0179    0.5045    1.8922 O   0  0  0  0  0  0
    3.8192   -0.0343    1.8965 C   0  0  0  0  0  0
    3.6799   -0.8844    3.1477 C   0  0  0  0  0  0
    3.3824   -0.3924    4.3662 C   0  0  0  0  0  0
    3.2415   -1.2315    5.5491 C   0  0  0  0  0  0
    2.8507   -0.5393    6.8508 C   0  0  0  0  0  0
    3.4181   -2.4505    5.5466 O   0  0  0  0  0  0
   -2.5398    2.5427   -0.4459 H   0  0  0  0  0  0
   -0.7006   -2.8762   -0.7201 H   0  0  0  0  0  0
   -2.1222   -4.6353    0.1344 H   0  0  0  0  0  0
   -3.9580   -4.1101    1.7018 H   0  0  0  0  0  0
   -4.2960   -1.8232    2.4658 H   0  0  0  0  0  0
   -1.5988   -0.9470    3.8884 H   0  0  0  0  0  0
   -2.0281   -0.7976    6.3013 H   0  0  0  0  0  0
   -3.7994    0.6967    7.1556 H   0  0  0  0  0  0
   -5.1521    2.0521    5.5958 H   0  0  0  0  0  0
   -4.7492    1.9169    3.1759 H   0  0  0  0  0  0
   -4.6832    0.9396   -0.4883 H   0  0  0  0  0  0
   -3.9529    1.7084   -1.8703 H   0  0  0  0  0  0
   -3.2127   -2.3970   -2.5911 H   0  0  0  0  0  0
   -5.0772   -6.1074   -4.8441 H   0  0  0  0  0  0
   -6.3428   -2.6230   -6.9656 H   0  0  0  0  0  0
   -5.3272   -1.1894   -5.2698 H   0  0  0  0  0  0
    0.8493   -1.6411   -0.3576 H   0  0  0  0  0  0
    1.0909   -0.1499   -1.1880 H   0  0  0  0  0  0
    3.1818   -0.8874    0.0705 H   0  0  0  0  0  0
    4.8043   -0.2415    1.4778 H   0  0  0  0  0  0
    3.8055    1.0347    2.1191 H   0  0  0  0  0  0
    3.8299   -1.9460    3.0053 H   0  0  0  0  0  0
    3.2298    0.6685    4.5046 H   0  0  0  0  0  0
    1.8916   -0.0340    6.7370 H   0  0  0  0  0  0
    3.6008    0.2024    7.1251 H   0  0  0  0  0  0
    2.7652   -1.2596    7.6651 H   0  0  0  0  0  0
  1 12  1  0  0  0
  1  6  1  0  0  0
  1  2  2  0  0  0
  2  4  1  0  0  0
  3  5  1  0  0  0
  3  7  1  0  0  0
  3 35  1  0  0  0
  4  5  1  0  0  0
  4 18  1  0  0  0
  4 45  1  0  0  0
  5 19  2  0  0  0
  6 11  1  0  0  0
  6  7  2  0  0  0
  7  8  1  0  0  0
  8  9  2  0  0  0
  8 46  1  0  0  0
  9 10  1  0  0  0
  9 47  1  0  0  0
 10 11  2  0  0  0
 10 48  1  0  0  0
 11 49  1  0  0  0
 12 13  2  0  0  0
 12 17  1  0  0  0
 13 14  1  0  0  0
 13 50  1  0  0  0
 14 15  2  0  0  0
 14 51  1  0  0  0
 15 16  1  0  0  0
 15 52  1  0  0  0
 16 17  2  0  0  0
 16 53  1  0  0  0
 17 54  1  0  0  0
 18 20  1  0  0  0
 18 55  1  0  0  0
 18 56  1  0  0  0
 20 21  1  0  0  0
 21 22  1  0  0  0
 21 23  2  0  0  0
 22 24  1  0  0  0
 22 57  1  0  0  0
 24 25  2  0  0  0
 24 29  1  0  0  0
 25 26  1  0  0  0
 25 30  1  0  0  0
 26 27  2  0  0  0
 26 58  1  0  0  0
 27 28  1  0  0  0
 27 34  1  0  0  0
 28 29  2  0  0  0
 28 59  1  0  0  0
 29 60  1  0  0  0
 30 31  1  0  0  0
 30 32  1  0  0  0
 30 33  1  0  0  0
 35 36  1  0  0  0
 35 61  1  0  0  0
 35 62  1  0  0  0
 36 37  1  0  0  0
 36 38  2  0  0  0
 37 39  1  0  0  0
 37 63  1  0  0  0
 39 40  1  0  0  0
 39 64  1  0  0  0
 39 65  1  0  0  0
 40 41  2  0  0  0
 40 66  1  0  0  0
 41 42  1  0  0  0
 41 67  1  0  0  0
 42 43  1  0  0  0
 42 44  2  0  0  0
 43 68  1  0  0  0
 43 69  1  0  0  0
 43 70  1  0  0  0
M  END
> <chembl_id>
CHEMBL509518

> <chembl_pref_name>
None

> <i_m_ct_stereo_status>
1

> <s_m_source_file>
sdf/inactives_sanitized.sdf

> <i_m_source_file_index>
224

> <i_lp_mmshare_version>
49012

> <i_f3d_flags>
0

> <s_epik_input>
W0NIM11DKD1PKVxbQ0hdPVtDSF1cW0NIMl1bTkhdQyg9TylbQ0gyXU4oYyhjMTIpW2NIXVtjSF1bY0hdW2NIXTIpQyg9TylbQ0BIXShOPUMxYzNbY0hdW2NIXVtjSF1bY0hdW2NIXTMpW0NIMl1PQyg9TylbTkhdYzRjKEMoRikoRilGKVtjSF1jKENsKVtjSF1bY0hdNA==

> <s_epik_cmdline>
J2VwaWtfcHl0aG9uJywgJy1waHQnLCAnMC41JywgJy1waCcsICc3LjUnLCAnLW50JywgJy1tYScsICcyMDAnLCAnLWltYWUnLCAnPGluZmlsZS5tYWU+JywgJy1vbWFlJywgJzxvdXRmaWxlLm1hZT4n

> <r_lp_tautomer_probability>
1

> <r_epik_Ionization_Penalty>
  0.0001

> <r_epik_Ionization_Penalty_Charging>
  0.0000

> <r_epik_Ionization_Penalty_Neutral>
  0.0001

> <r_epik_State_Penalty>
 -0.0000

> <r_epik_Charging_Adjusted_Penalty>
0

> <i_epik_Tot_Q>
0

> <i_epik_Tot_abs_Q>
0

> <s_epik_Chemistry_Notes>
This compound has an ester and may undergo hydrolysis at high or low pH. This compound has an imine and may undergo hydrolysis.

> <s_lp_Force_Field>
OPLS3e

> <r_lp_Energy>
66.234116

> <b_lp_Chiralities_Consistent>
1

> <s_lp_Variant>
sdf/inactives_sanitized.sdf:224-1

$$$$
sdf/inactives_sanitized.sdf:225
                    3D
 Schrodinger Suite 2020-1.
 52 52  0  0  1  0            999 V2000
   -1.3157   -2.0235   -3.1520 C   0  0  2  0  0  0
   -2.5978   -1.6121   -3.8232 C   0  0  2  0  0  0
   -2.5653   -2.4923   -2.7213 O   0  0  0  0  0  0
   -0.6780   -0.9790   -2.2355 C   0  0  0  0  0  0
   -2.9395   -2.2133   -5.1912 C   0  0  0  0  0  0
   -0.7149   -1.2324   -0.9156 N   0  0  0  0  0  0
   -0.1457   -0.3745    0.1268 C   0  0  2  0  0  0
    5.9461    1.5761   -5.1229 C   0  0  0  0  0  0
    1.3918   -0.3801    0.0832 C   0  0  0  0  0  0
    5.6114    1.6703   -3.8359 N   0  0  0  0  0  0
   -0.1540    0.0238   -2.7213 O   0  0  0  0  0  0
   -3.2325   -1.4043   -6.0986 O   0  0  0  0  0  0
    1.9969   -1.4494   -0.0048 O   0  0  0  0  0  0
   -0.6481   -0.8462    1.5110 C   0  0  0  0  0  0
    1.9847    0.8221    0.1607 N   0  0  0  0  0  0
    6.8619    0.7204   -5.5624 N   0  0  0  0  0  0
    5.3434    2.3656   -5.9986 N   0  3  0  0  0  0
   -2.9046   -3.4581   -5.3179 O   0  5  0  0  0  0
   -2.1728   -0.7065    1.7315 C   0  0  0  0  0  0
    6.1695    0.8628   -2.7452 C   0  0  0  0  0  0
    3.4280    1.0351    0.0991 C   0  0  0  0  0  0
    5.5272    1.1596   -1.3784 C   0  0  0  0  0  0
    4.0243    0.8256   -1.3079 C   0  0  0  0  0  0
   -2.6506    0.7591    1.6417 C   0  0  0  0  0  0
   -2.6048   -1.3815    3.0513 C   0  0  0  0  0  0
   -0.6482   -2.7567   -3.6066 H   0  0  0  0  0  0
   -3.0190   -0.6292   -3.6042 H   0  0  0  0  0  0
   -1.1582   -2.0805   -0.5937 H   0  0  0  0  0  0
   -0.4896    0.6454   -0.0539 H   0  0  0  0  0  0
   -0.3596   -1.8899    1.6491 H   0  0  0  0  0  0
   -0.1321   -0.2900    2.2956 H   0  0  0  0  0  0
    1.4071    1.6463    0.2434 H   0  0  0  0  0  0
    7.0720    0.6688   -6.5486 H   0  0  0  0  0  0
    7.3373    0.1142   -4.9096 H   0  0  0  0  0  0
    4.4500    2.7791   -5.7728 H   0  0  0  0  0  0
    5.7763    2.5493   -6.8923 H   0  0  0  0  0  0
   -2.6728   -1.2567    0.9333 H   0  0  0  0  0  0
    6.0411   -0.1849   -3.0201 H   0  0  0  0  0  0
    7.2394    1.0728   -2.7214 H   0  0  0  0  0  0
    3.6236    2.0577    0.4238 H   0  0  0  0  0  0
    3.9395    0.4050    0.8297 H   0  0  0  0  0  0
    6.0555    0.5827   -0.6180 H   0  0  0  0  0  0
    5.6847    2.2082   -1.1207 H   0  0  0  0  0  0
    3.4804    1.4408   -2.0266 H   0  0  0  0  0  0
    3.8800   -0.2123   -1.6125 H   0  0  0  0  0  0
   -3.3659    1.0190    2.4217 H   0  0  0  0  0  0
   -3.1440    0.9425    0.6867 H   0  0  0  0  0  0
   -1.8229    1.4642    1.7209 H   0  0  0  0  0  0
   -1.7835   -1.9213    3.5235 H   0  0  0  0  0  0
   -3.4013   -2.1044    2.8728 H   0  0  0  0  0  0
   -2.9739   -0.6688    3.7887 H   0  0  0  0  0  0
    4.9253    2.3689   -3.5891 H   0  0  0  0  0  0
  1  2  1  0  0  0
  1  3  1  0  0  0
  1  4  1  0  0  0
  1 26  1  0  0  0
  2  5  1  0  0  0
  2  3  1  0  0  0
  2 27  1  0  0  0
  4  6  1  0  0  0
  4 11  2  0  0  0
  5 12  2  0  0  0
  5 18  1  0  0  0
  6  7  1  0  0  0
  6 28  1  0  0  0
  7  9  1  0  0  0
  7 14  1  0  0  0
  7 29  1  0  0  0
  8 10  1  0  0  0
  8 16  1  0  0  0
  8 17  2  0  0  0
  9 13  2  0  0  0
  9 15  1  0  0  0
 10 20  1  0  0  0
 10 52  1  0  0  0
 14 19  1  0  0  0
 14 30  1  0  0  0
 14 31  1  0  0  0
 15 21  1  0  0  0
 15 32  1  0  0  0
 16 33  1  0  0  0
 16 34  1  0  0  0
 17 35  1  0  0  0
 17 36  1  0  0  0
 19 24  1  0  0  0
 19 25  1  0  0  0
 19 37  1  0  0  0
 20 22  1  0  0  0
 20 38  1  0  0  0
 20 39  1  0  0  0
 21 23  1  0  0  0
 21 40  1  0  0  0
 21 41  1  0  0  0
 22 23  1  0  0  0
 22 42  1  0  0  0
 22 43  1  0  0  0
 23 44  1  0  0  0
 23 45  1  0  0  0
 24 46  1  0  0  0
 24 47  1  0  0  0
 24 48  1  0  0  0
 25 49  1  0  0  0
 25 50  1  0  0  0
 25 51  1  0  0  0
M  CHG  2  17   1  18  -1
M  END
> <chembl_id>
CHEMBL374508

> <chembl_pref_name>
E-64

> <i_m_ct_stereo_status>
1

> <s_m_source_file>
sdf/inactives_sanitized.sdf

> <i_m_source_file_index>
225

> <i_lp_mmshare_version>
49012

> <i_f3d_flags>
0

> <s_epik_input>
Tz1DKFtPSF0pW0NAQEhdKE8xKVtDQEhdMUMoPU8pW05IXVtDQEBIXShbQ0gyXVtDSF0oW0NIM10pW0NIM10pQyg9TylbTkhdW0NIMl1bQ0gyXVtDSDJdW0NIMl1OPUMoW05IMl0pW05IMl0=

> <s_epik_cmdline>
J2VwaWtfcHl0aG9uJywgJy1waHQnLCAnMC41JywgJy1waCcsICc3LjUnLCAnLW50JywgJy1tYScsICcyMDAnLCAnLWltYWUnLCAnPGluZmlsZS5tYWU+JywgJy1vbWFlJywgJzxvdXRmaWxlLm1hZT4n

> <r_lp_tautomer_probability>
1

> <r_epik_Ionization_Penalty>
  0.0001

> <r_epik_Ionization_Penalty_Charging>
  0.0001

> <r_epik_Ionization_Penalty_Neutral>
  0.0000

> <r_epik_State_Penalty>
 -0.0000

> <r_epik_Charging_Adjusted_Penalty>
7.38510565041954e-05

> <i_epik_Tot_Q>
0

> <i_epik_Tot_abs_Q>
2

> <s_epik_Chemistry_Notes>
This compound has an imine and may undergo hydrolysis.

> <s_lp_Force_Field>
OPLS3e

> <r_lp_Energy>
5.502695

> <b_lp_Chiralities_Consistent>
1

> <s_lp_Variant>
sdf/inactives_sanitized.sdf:225-1

$$$$
sdf/inactives_sanitized.sdf:226
                    3D
 Schrodinger Suite 2020-1.
 59 62  0  0  1  0            999 V2000
   -3.1184    0.5328    0.0440 C   0  0  0  0  0  0
   -1.6711    1.0409    0.1351 C   0  0  0  0  0  0
   -1.4976    2.0063   -0.7689 F   0  0  0  0  0  0
   -1.4771    1.5950    1.3326 F   0  0  0  0  0  0
   -0.6645   -0.1132   -0.0902 C   0  0  0  0  0  0
    0.8315    0.2599    0.0972 C   0  0  2  0  0  0
    1.2673    1.3188   -0.8196 N   0  0  0  0  0  0
    2.4037    2.0312   -0.7147 C   0  0  0  0  0  0
    3.2111    1.9141    0.2076 O   0  0  0  0  0  0
    2.5965    2.8710   -1.7428 N   0  0  0  0  0  0
    1.6922    3.7968   -2.4654 C   0  0  0  0  0  0
    2.9030    4.1179   -3.3722 C   0  0  0  0  0  0
    3.2617    5.6190   -3.3699 C   0  0  0  0  0  0
    4.5006    5.9253   -4.2351 C   0  0  0  0  0  0
    4.3426    5.3441   -5.6603 N   0  3  0  0  0  0
    3.9891    3.8381   -5.6787 C   0  0  0  0  0  0
    2.7557    3.5458   -4.8002 C   0  0  0  0  0  0
    3.3417    6.1662   -6.4964 C   0  0  0  0  0  0
    3.5308    6.2406   -7.9940 C   0  0  0  0  0  0
    3.8078    7.4528   -7.1372 C   0  0  0  0  0  0
    3.8257    3.2708   -2.4617 C   0  0  0  0  0  0
    1.7332   -0.9857   -0.0465 C   0  0  0  0  0  0
    1.7646   -1.5953   -1.1169 O   0  0  0  0  0  0
    2.4319   -1.3500    1.0412 N   0  0  0  0  0  0
    3.3887   -2.4517    1.0542 C   0  0  0  0  0  0
    3.3654   -3.4015    2.2331 C   0  0  0  0  0  0
    2.8629   -3.8671    0.8917 C   0  0  0  0  0  0
    4.6856   -2.1477    0.4230 C   0  0  0  0  0  0
    5.7035   -1.9085   -0.0729 N   0  0  0  0  0  0
   -3.8293    1.3464    0.1919 H   0  0  0  0  0  0
   -3.3236   -0.2234    0.8026 H   0  0  0  0  0  0
   -3.3241    0.0901   -0.9314 H   0  0  0  0  0  0
   -0.9139   -0.9220    0.6001 H   0  0  0  0  0  0
   -0.8193   -0.5164   -1.0933 H   0  0  0  0  0  0
    0.9419    0.6530    1.1110 H   0  0  0  0  0  0
    0.6506    1.4988   -1.5984 H   0  0  0  0  0  0
    0.8790    3.2706   -2.9672 H   0  0  0  0  0  0
    1.3366    4.5988   -1.8171 H   0  0  0  0  0  0
    2.4115    6.2023   -3.7254 H   0  0  0  0  0  0
    3.4431    5.9642   -2.3506 H   0  0  0  0  0  0
    4.6831    6.9956   -4.3403 H   0  0  0  0  0  0
    5.4021    5.4586   -3.8355 H   0  0  0  0  0  0
    3.8370    3.5540   -6.7210 H   0  0  0  0  0  0
    4.8821    3.3319   -5.3098 H   0  0  0  0  0  0
    1.8625    3.9564   -5.2719 H   0  0  0  0  0  0
    2.5920    2.4676   -4.7610 H   0  0  0  0  0  0
    2.3359    6.1039   -6.0793 H   0  0  0  0  0  0
    4.3680    5.7065   -8.4447 H   0  0  0  0  0  0
    2.6435    6.2299   -8.6278 H   0  0  0  0  0  0
    4.8394    7.7718   -6.9849 H   0  0  0  0  0  0
    3.1144    8.2938   -7.1671 H   0  0  0  0  0  0
    4.3025    2.4259   -2.9602 H   0  0  0  0  0  0
    4.5123    3.8158   -1.8123 H   0  0  0  0  0  0
    2.4033   -0.7615    1.8612 H   0  0  0  0  0  0
    4.3098   -3.8010    2.6041 H   0  0  0  0  0  0
    2.6398   -3.2411    3.0313 H   0  0  0  0  0  0
    3.4590   -4.5887    0.3323 H   0  0  0  0  0  0
    1.7915   -4.0260    0.7642 H   0  0  0  0  0  0
    5.2365    5.4439   -6.1207 H   0  0  0  0  0  0
  1  2  1  0  0  0
  1 30  1  0  0  0
  1 31  1  0  0  0
  1 32  1  0  0  0
  2  3  1  0  0  0
  2  4  1  0  0  0
  2  5  1  0  0  0
  5  6  1  0  0  0
  5 33  1  0  0  0
  5 34  1  0  0  0
  6  7  1  0  0  0
  6 22  1  0  0  0
  6 35  1  0  0  0
  7  8  1  0  0  0
  7 36  1  0  0  0
  8  9  2  0  0  0
  8 10  1  0  0  0
 10 11  1  0  0  0
 10 21  1  0  0  0
 11 12  1  0  0  0
 11 37  1  0  0  0
 11 38  1  0  0  0
 12 13  1  0  0  0
 12 17  1  0  0  0
 12 21  1  0  0  0
 13 14  1  0  0  0
 13 39  1  0  0  0
 13 40  1  0  0  0
 14 15  1  0  0  0
 14 41  1  0  0  0
 14 42  1  0  0  0
 15 16  1  0  0  0
 15 18  1  0  0  0
 15 59  1  0  0  0
 16 17  1  0  0  0
 16 43  1  0  0  0
 16 44  1  0  0  0
 17 45  1  0  0  0
 17 46  1  0  0  0
 18 19  1  0  0  0
 18 20  1  0  0  0
 18 47  1  0  0  0
 19 20  1  0  0  0
 19 48  1  0  0  0
 19 49  1  0  0  0
 20 50  1  0  0  0
 20 51  1  0  0  0
 21 52  1  0  0  0
 21 53  1  0  0  0
 22 23  2  0  0  0
 22 24  1  0  0  0
 24 25  1  0  0  0
 24 54  1  0  0  0
 25 26  1  0  0  0
 25 27  1  0  0  0
 25 28  1  0  0  0
 26 27  1  0  0  0
 26 55  1  0  0  0
 26 56  1  0  0  0
 27 57  1  0  0  0
 27 58  1  0  0  0
 28 29  3  0  0  0
M  CHG  1  15   1
M  END
> <chembl_id>
CHEMBL3640723

> <chembl_pref_name>
None

> <i_m_ct_stereo_status>
1

> <s_m_source_file>
sdf/inactives_sanitized.sdf

> <i_m_source_file_index>
226

> <i_lp_mmshare_version>
49012

> <i_f3d_flags>
0

> <s_epik_input>
W0NIMl0xW0NIMl1DMShDI04pW05IXUMoPU8pW0NASF0oW0NIMl1DKEYpKEYpW0NIM10pW05IXUMoPU8pTihbQ0gyXTIpW0NIMl1DMjNbQ0gyXVtDSDJdTihbQ0gyXVtDSDJdMylbQ0hdNFtDSDJdW0NIMl00

> <s_epik_cmdline>
J2VwaWtfcHl0aG9uJywgJy1waHQnLCAnMC41JywgJy1waCcsICc3LjUnLCAnLW50JywgJy1tYScsICcyMDAnLCAnLWltYWUnLCAnPGluZmlsZS5tYWU+JywgJy1vbWFlJywgJzxvdXRmaWxlLm1hZT4n

> <r_epik_Ionization_Penalty>
  0.2134

> <r_epik_Ionization_Penalty_Charging>
  0.2134

> <r_epik_Ionization_Penalty_Neutral>
  0.0000

> <r_epik_State_Penalty>
  0.2036

> <r_epik_Charging_Adjusted_Penalty>
0.417009333163891

> <i_epik_Tot_Q>
1

> <i_epik_Tot_abs_Q>
1

> <s_lp_Force_Field>
OPLS3e

> <r_lp_Energy>
11.554172

> <b_lp_Chiralities_Consistent>
1

> <s_lp_Variant>
sdf/inactives_sanitized.sdf:226-1

$$$$
sdf/inactives_sanitized.sdf:227
                    3D
 Schrodinger Suite 2020-1.
 66 67  0  0  1  0            999 V2000
   -2.5136    1.0779   -1.5912 C   0  0  0  0  0  0
    0.1171   -0.1860   -0.4237 C   0  0  0  0  0  0
   -3.9209    0.4472   -1.9610 C   0  0  0  0  0  0
   -0.6323    0.8684   -0.0451 N   0  0  0  0  0  0
    2.3184   -0.2144   -2.7413 C   0  0  0  0  0  0
    1.6503    0.0101   -0.3477 C   0  0  2  0  0  0
   -2.1015    0.9673   -0.1146 C   0  0  1  0  0  0
    2.3643   -0.6855   -1.4334 N   0  0  0  0  0  0
   -4.2876    0.7155   -3.2289 N   0  0  0  0  0  0
   -1.8164    1.6083   -2.4638 O   0  0  0  0  0  0
   -0.3519   -1.2639   -0.7950 O   0  0  0  0  0  0
    1.7722    0.8233   -3.1259 O   0  0  0  0  0  0
   -4.5763   -0.2012   -1.1435 O   0  0  0  0  0  0
    2.9636   -1.0858   -3.5388 O   0  0  0  0  0  0
    2.1930   -0.4863    1.0200 C   0  0  0  0  0  0
   -9.0287    2.2450   -2.0544 N   0  0  0  0  0  0
   -5.5663    0.3316   -3.8280 C   0  0  0  0  0  0
    3.0356   -0.8709   -4.9428 C   0  0  0  0  0  0
   -6.7881    1.0072   -3.2111 C   0  0  0  0  0  0
    3.6709   -2.0782   -5.6070 C   0  0  0  0  0  0
   -2.5904    2.1880    0.7110 C   0  0  0  0  0  0
    3.6809   -0.1581    1.2966 C   0  0  0  0  0  0
   -8.9581    0.8950   -2.1786 C   0  0  0  0  0  0
   -7.9796    2.9768   -2.5083 C   0  0  0  0  0  0
   -7.8633    0.2404   -2.7468 C   0  0  0  0  0  0
   -6.8480    2.4016   -3.0895 C   0  0  0  0  0  0
    5.0055   -2.0279   -6.0163 C   0  0  0  0  0  0
    2.9163   -3.2370   -5.8062 C   0  0  0  0  0  0
    4.1744   -0.8589    2.5811 C   0  0  0  0  0  0
    3.9541    1.3615    1.3198 C   0  0  0  0  0  0
   -4.1145    2.3277    0.8764 C   0  0  0  0  0  0
    5.5858   -3.1382   -6.6246 C   0  0  0  0  0  0
    3.4975   -4.3467   -6.4141 C   0  0  0  0  0  0
    4.8293   -4.2921   -6.8207 C   0  0  0  0  0  0
   -0.1602    1.7113    0.2489 H   0  0  0  0  0  0
    1.8582    1.0801   -0.4231 H   0  0  0  0  0  0
   -2.4940    0.0604    0.3513 H   0  0  0  0  0  0
    2.7670   -1.5922   -1.2465 H   0  0  0  0  0  0
   -3.6627    1.2595   -3.8066 H   0  0  0  0  0  0
    1.5986   -0.0614    1.8316 H   0  0  0  0  0  0
    2.0454   -1.5664    1.0882 H   0  0  0  0  0  0
   -5.5286    0.6123   -4.8812 H   0  0  0  0  0  0
   -5.6662   -0.7555   -3.8067 H   0  0  0  0  0  0
    2.0404   -0.7149   -5.3637 H   0  0  0  0  0  0
    3.6172    0.0268   -5.1597 H   0  0  0  0  0  0
   -2.1555    2.1242    1.7101 H   0  0  0  0  0  0
   -2.1879    3.1115    0.2898 H   0  0  0  0  0  0
    4.2681   -0.5779    0.4789 H   0  0  0  0  0  0
   -9.8035    0.3336   -1.8088 H   0  0  0  0  0  0
   -8.0568    4.0484   -2.3986 H   0  0  0  0  0  0
   -7.8514   -0.8374   -2.8188 H   0  0  0  0  0  0
   -6.0360    3.0248   -3.4347 H   0  0  0  0  0  0
    5.5923   -1.1338   -5.8631 H   0  0  0  0  0  0
    1.8842   -3.2785   -5.4890 H   0  0  0  0  0  0
    4.4265   -0.1557    3.3748 H   0  0  0  0  0  0
    5.0663   -1.4525    2.3788 H   0  0  0  0  0  0
    3.4261   -1.5374    2.9917 H   0  0  0  0  0  0
    3.0364    1.9396    1.4316 H   0  0  0  0  0  0
    4.4283    1.6795    0.3908 H   0  0  0  0  0  0
    4.6183    1.6590    2.1311 H   0  0  0  0  0  0
   -4.3559    3.1474    1.5533 H   0  0  0  0  0  0
   -4.5539    1.4193    1.2898 H   0  0  0  0  0  0
   -4.6072    2.5397   -0.0725 H   0  0  0  0  0  0
    6.6175   -3.1053   -6.9429 H   0  0  0  0  0  0
    2.9187   -5.2453   -6.5690 H   0  0  0  0  0  0
    5.2798   -5.1532   -7.2924 H   0  0  0  0  0  0
  1  3  1  0  0  0
  1  7  1  0  0  0
  1 10  2  0  0  0
  2  4  1  0  0  0
  2  6  1  0  0  0
  2 11  2  0  0  0
  3  9  1  0  0  0
  3 13  2  0  0  0
  4  7  1  0  0  0
  4 35  1  0  0  0
  5  8  1  0  0  0
  5 12  2  0  0  0
  5 14  1  0  0  0
  6  8  1  0  0  0
  6 15  1  0  0  0
  6 36  1  0  0  0
  7 21  1  0  0  0
  7 37  1  0  0  0
  8 38  1  0  0  0
  9 17  1  0  0  0
  9 39  1  0  0  0
 14 18  1  0  0  0
 15 22  1  0  0  0
 15 40  1  0  0  0
 15 41  1  0  0  0
 16 24  2  0  0  0
 16 23  1  0  0  0
 17 19  1  0  0  0
 17 42  1  0  0  0
 17 43  1  0  0  0
 18 20  1  0  0  0
 18 44  1  0  0  0
 18 45  1  0  0  0
 19 25  1  0  0  0
 19 26  2  0  0  0
 20 27  2  0  0  0
 20 28  1  0  0  0
 21 31  1  0  0  0
 21 46  1  0  0  0
 21 47  1  0  0  0
 22 29  1  0  0  0
 22 30  1  0  0  0
 22 48  1  0  0  0
 23 25  2  0  0  0
 23 49  1  0  0  0
 24 26  1  0  0  0
 24 50  1  0  0  0
 25 51  1  0  0  0
 26 52  1  0  0  0
 27 32  1  0  0  0
 27 53  1  0  0  0
 28 33  2  0  0  0
 28 54  1  0  0  0
 29 55  1  0  0  0
 29 56  1  0  0  0
 29 57  1  0  0  0
 30 58  1  0  0  0
 30 59  1  0  0  0
 30 60  1  0  0  0
 31 61  1  0  0  0
 31 62  1  0  0  0
 31 63  1  0  0  0
 32 34  2  0  0  0
 32 64  1  0  0  0
 33 34  1  0  0  0
 33 65  1  0  0  0
 34 66  1  0  0  0
M  END
> <chembl_id>
CHEMBL134142

> <chembl_pref_name>
None

> <s_m_source_file>
sdf/inactives_sanitized.sdf

> <i_m_source_file_index>
227

> <i_lp_mmshare_version>
49012

> <i_m_ct_stereo_status>
1

> <i_f3d_flags>
0

> <s_epik_input>
W2NIXTFbY0hdbltjSF1bY0hdYzFbQ0gyXVtOSF1DKD1PKUMoPU8pW0NASF0oW0NIMl1bQ0gzXSlbTkhdQyg9TylbQ0BASF0oW0NIMl1bQ0hdKFtDSDNdKVtDSDNdKVtOSF1DKD1PKU9bQ0gyXWMyW2NIXVtjSF1bY0hdW2NIXVtjSF0y

> <s_epik_cmdline>
J2VwaWtfcHl0aG9uJywgJy1waHQnLCAnMC41JywgJy1waCcsICc3LjUnLCAnLW50JywgJy1tYScsICcyMDAnLCAnLWltYWUnLCAnPGluZmlsZS5tYWU+JywgJy1vbWFlJywgJzxvdXRmaWxlLm1hZT4n

> <r_lp_tautomer_probability>
1

> <r_epik_Ionization_Penalty>
  0.0016

> <r_epik_Ionization_Penalty_Charging>
  0.0000

> <r_epik_Ionization_Penalty_Neutral>
  0.0016

> <r_epik_State_Penalty>
 -0.0000

> <r_epik_Charging_Adjusted_Penalty>
0

> <i_epik_Tot_Q>
0

> <i_epik_Tot_abs_Q>
0

> <s_epik_Chemistry_Notes>
This compound has an ester and may undergo hydrolysis at high or low pH.

> <s_lp_Force_Field>
OPLS3e

> <r_lp_Energy>
40.047615

> <b_lp_Chiralities_Consistent>
1

> <s_lp_Variant>
sdf/inactives_sanitized.sdf:227-1

$$$$
sdf/inactives_sanitized.sdf:228
                    3D
 Schrodinger Suite 2020-1.
 56 59  0  0  1  0            999 V2000
   10.6706   -0.4715   -0.7741 C   0  0  0  0  0  0
   12.1235   -0.6607   -1.0577 C   0  0  0  0  0  0
   12.9263   -0.4253   -2.1575 C   0  0  0  0  0  0
   14.1967   -0.8265   -1.7606 C   0  0  0  0  0  0
   14.2229   -1.2771   -0.5287 N   0  0  0  0  0  0
   12.9074   -1.1760   -0.0713 O   0  0  0  0  0  0
   -0.2636   -2.3025   -1.2769 C   0  0  0  0  0  0
   -0.6716   -0.8118   -1.2700 C   0  0  0  0  0  0
   -0.1002   -0.0347   -0.0408 C   0  0  0  0  0  0
   -0.6722   -0.7667    1.2249 C   0  0  0  0  0  0
   -0.2601   -2.2544    1.2823 C   0  0  0  0  0  0
   -0.7095   -3.0119    0.0169 C   0  0  0  0  0  0
    1.3798   -0.0124   -0.0871 N   0  0  0  0  0  0
   -0.7099    1.4071   -0.1870 C   0  0  0  0  0  0
   -1.9005    1.6802    0.3817 N   0  0  0  0  0  0
   -0.1186    2.2544   -0.8612 O   0  0  0  0  0  0
   -2.6065    2.9535    0.2641 C   0  0  0  0  0  0
   -3.0589    3.2311   -1.1107 C   0  0  0  0  0  0
   -3.4144    3.4486   -2.1902 N   0  0  0  0  0  0
    2.2321    0.6231    0.7470 C   0  0  0  0  0  0
    3.7046    0.4207    0.4696 C   0  0  0  0  0  0
    1.8580    1.3202    1.6925 O   0  0  0  0  0  0
    4.6376    0.5945    1.4983 C   0  0  0  0  0  0
    5.9974    0.4191    1.2565 C   0  0  0  0  0  0
    6.4629    0.0735   -0.0185 C   0  0  0  0  0  0
    5.5262   -0.0940   -1.0461 C   0  0  0  0  0  0
    4.1656    0.0757   -0.8086 C   0  0  0  0  0  0
    7.9234   -0.1117   -0.2780 C   0  0  0  0  0  0
    8.4852    0.2575   -1.5076 C   0  0  0  0  0  0
    9.8438    0.0808   -1.7542 C   0  0  0  0  0  0
   10.1219   -0.8402    0.4569 C   0  0  0  0  0  0
    8.7630   -0.6605    0.7005 C   0  0  0  0  0  0
   12.6337   -0.0205   -3.1148 H   0  0  0  0  0  0
   15.0903   -0.7893   -2.3662 H   0  0  0  0  0  0
    0.8179   -2.3937   -1.3888 H   0  0  0  0  0  0
   -0.7000   -2.8032   -2.1420 H   0  0  0  0  0  0
   -1.7522   -0.6910   -1.3814 H   0  0  0  0  0  0
   -0.2513   -0.3871   -2.1850 H   0  0  0  0  0  0
   -0.2569   -0.3041    2.1215 H   0  0  0  0  0  0
   -1.7539   -0.6674    1.3291 H   0  0  0  0  0  0
    0.8222   -2.3366    1.3933 H   0  0  0  0  0  0
   -0.6906   -2.7256    2.1667 H   0  0  0  0  0  0
   -1.7970   -3.0996    0.0198 H   0  0  0  0  0  0
   -0.3230   -4.0316    0.0356 H   0  0  0  0  0  0
    1.7876   -0.7647   -0.6223 H   0  0  0  0  0  0
   -2.3845    0.9415    0.8706 H   0  0  0  0  0  0
   -3.4838    2.9337    0.9104 H   0  0  0  0  0  0
   -1.9773    3.7782    0.6028 H   0  0  0  0  0  0
    4.3185    0.8651    2.4952 H   0  0  0  0  0  0
    6.6904    0.5680    2.0718 H   0  0  0  0  0  0
    5.8458   -0.3676   -2.0411 H   0  0  0  0  0  0
    3.4802   -0.0581   -1.6335 H   0  0  0  0  0  0
    7.8724    0.6955   -2.2818 H   0  0  0  0  0  0
   10.2473    0.3769   -2.7117 H   0  0  0  0  0  0
   10.7415   -1.2714    1.2299 H   0  0  0  0  0  0
    8.3651   -0.9660    1.6571 H   0  0  0  0  0  0
  1  2  1  0  0  0
  1 30  2  0  0  0
  1 31  1  0  0  0
  2  6  1  0  0  0
  2  3  2  0  0  0
  3  4  1  0  0  0
  3 33  1  0  0  0
  4  5  2  0  0  0
  4 34  1  0  0  0
  5  6  1  0  0  0
  7 12  1  0  0  0
  7  8  1  0  0  0
  7 35  1  0  0  0
  7 36  1  0  0  0
  8  9  1  0  0  0
  8 37  1  0  0  0
  8 38  1  0  0  0
  9 14  1  0  0  0
  9 10  1  0  0  0
  9 13  1  0  0  0
 10 11  1  0  0  0
 10 39  1  0  0  0
 10 40  1  0  0  0
 11 12  1  0  0  0
 11 41  1  0  0  0
 11 42  1  0  0  0
 12 43  1  0  0  0
 12 44  1  0  0  0
 13 20  1  0  0  0
 13 45  1  0  0  0
 14 15  1  0  0  0
 14 16  2  0  0  0
 15 17  1  0  0  0
 15 46  1  0  0  0
 17 18  1  0  0  0
 17 47  1  0  0  0
 17 48  1  0  0  0
 18 19  3  0  0  0
 20 22  2  0  0  0
 20 21  1  0  0  0
 21 23  2  0  0  0
 21 27  1  0  0  0
 23 24  1  0  0  0
 23 49  1  0  0  0
 24 25  2  0  0  0
 24 50  1  0  0  0
 25 26  1  0  0  0
 25 28  1  0  0  0
 26 27  2  0  0  0
 26 51  1  0  0  0
 27 52  1  0  0  0
 28 29  2  0  0  0
 28 32  1  0  0  0
 29 30  1  0  0  0
 29 53  1  0  0  0
 30 54  1  0  0  0
 31 32  2  0  0  0
 31 55  1  0  0  0
 32 56  1  0  0  0
M  END
> <chembl_id>
CHEMBL199014

> <chembl_pref_name>
None

> <s_m_source_file>
sdf/inactives_sanitized.sdf

> <i_m_source_file_index>
228

> <i_lp_mmshare_version>
49012

> <i_m_ct_stereo_status>
1

> <i_f3d_flags>
0

> <s_epik_input>
bzFuW2NIXVtjSF1jMS1jMltjSF1bY0hdYyhbY0hdW2NIXTIpLWMoW2NIXVtjSF0zKVtjSF1bY0hdYzNDKD1PKVtOSF1DNChDKD1PKVtOSF1bQ0gyXUMjTilbQ0gyXVtDSDJdW0NIMl1bQ0gyXVtDSDJdNA==

> <s_epik_cmdline>
J2VwaWtfcHl0aG9uJywgJy1waHQnLCAnMC41JywgJy1waCcsICc3LjUnLCAnLW50JywgJy1tYScsICcyMDAnLCAnLWltYWUnLCAnPGluZmlsZS5tYWU+JywgJy1vbWFlJywgJzxvdXRmaWxlLm1hZT4n

> <r_lp_tautomer_probability>
1

> <r_epik_Ionization_Penalty>
  0.0000

> <r_epik_Ionization_Penalty_Charging>
  0.0000

> <r_epik_Ionization_Penalty_Neutral>
  0.0000

> <r_epik_State_Penalty>
 -0.0000

> <r_epik_Charging_Adjusted_Penalty>
0

> <i_epik_Tot_Q>
0

> <i_epik_Tot_abs_Q>
0

> <s_lp_Force_Field>
OPLS3e

> <r_lp_Energy>
46.108378

> <b_lp_Chiralities_Consistent>
1

> <s_lp_Variant>
sdf/inactives_sanitized.sdf:228-1

$$$$
sdf/inactives_sanitized.sdf:229
                    3D
 Schrodinger Suite 2020-1.
 61 64  0  0  1  0            999 V2000
   -0.4840   -2.1413   -1.1624 C   0  0  0  0  0  0
   -0.8238   -0.6379   -1.0572 C   0  0  0  0  0  0
   -0.1734    0.0541    0.1878 C   0  0  0  0  0  0
   -0.6752   -0.7417    1.4416 C   0  0  0  0  0  0
   -0.3272   -2.2448    1.3825 C   0  0  0  0  0  0
   -0.8935   -2.9040    0.1111 C   0  0  0  0  0  0
    1.3026    0.0719    0.0646 N   0  0  0  0  0  0
   -0.7660    1.5075    0.2545 C   0  0  0  0  0  0
   -0.6863    2.2577   -0.8625 N   0  0  0  0  0  0
   -1.1336    1.9976    1.3251 O   0  0  0  0  0  0
   -1.0388    3.6727   -0.9417 C   0  0  0  0  0  0
   -0.1357    4.5289   -0.1520 C   0  0  0  0  0  0
    0.5739    5.2008    0.4676 N   0  0  0  0  0  0
    2.2145    0.6765    0.8596 C   0  0  0  0  0  0
    3.6649    0.4530    0.4947 C   0  0  0  0  0  0
    1.9121    1.4013    1.8091 O   0  0  0  0  0  0
    4.6328    1.3818    0.8965 C   0  0  0  0  0  0
    5.9733    1.1929    0.5729 C   0  0  0  0  0  0
    6.3786    0.0699   -0.1564 C   0  0  0  0  0  0
    5.4121   -0.8619   -0.5551 C   0  0  0  0  0  0
    4.0709   -0.6749   -0.2335 C   0  0  0  0  0  0
    7.8288   -0.1200   -0.4988 C   0  0  0  0  0  0
    8.1873   -0.9607   -1.4595 N   0  0  0  0  0  0
    9.4841   -1.0205   -1.6462 C   0  0  0  0  0  0
   10.4078    0.0074   -0.5950 S   0  0  0  0  0  0
    8.9097    0.5239    0.1144 C   0  0  0  0  0  0
   10.1117   -1.8224   -2.5725 N   0  0  0  0  0  0
    9.4249   -2.4216   -3.7097 C   0  0  0  0  0  0
   10.4323   -3.3957   -4.3090 C   0  0  0  0  0  0
   11.7846   -2.7191   -4.0914 C   0  0  2  0  0  0
   11.5165   -1.7125   -2.9599 C   0  0  0  0  0  0
   12.4157   -2.0881   -5.3376 N   0  3  0  0  0  0
    0.5859   -2.2691   -1.3345 H   0  0  0  0  0  0
   -0.9842   -2.5751   -2.0290 H   0  0  0  0  0  0
   -1.9018   -0.4666   -1.1081 H   0  0  0  0  0  0
   -0.4306   -0.1834   -1.9691 H   0  0  0  0  0  0
   -0.1780   -0.3537    2.3326 H   0  0  0  0  0  0
   -1.7399   -0.5864    1.6303 H   0  0  0  0  0  0
    0.7558   -2.3755    1.4103 H   0  0  0  0  0  0
   -0.7170   -2.7510    2.2663 H   0  0  0  0  0  0
   -1.9823   -2.9375    0.1768 H   0  0  0  0  0  0
   -0.5614   -3.9410    0.0483 H   0  0  0  0  0  0
    1.6713   -0.6839   -0.4934 H   0  0  0  0  0  0
   -0.2712    1.8515   -1.6882 H   0  0  0  0  0  0
   -0.9827    3.9942   -1.9816 H   0  0  0  0  0  0
   -2.0652    3.8371   -0.6097 H   0  0  0  0  0  0
    4.3551    2.2623    1.4591 H   0  0  0  0  0  0
    6.6908    1.9339    0.8923 H   0  0  0  0  0  0
    5.6938   -1.7423   -1.1145 H   0  0  0  0  0  0
    3.3580   -1.4215   -0.5530 H   0  0  0  0  0  0
    8.9006    1.2440    0.9194 H   0  0  0  0  0  0
    8.5420   -2.9537   -3.3514 H   0  0  0  0  0  0
    9.0762   -1.6622   -4.4116 H   0  0  0  0  0  0
   10.3741   -4.3611   -3.8028 H   0  0  0  0  0  0
   10.2181   -3.5826   -5.3620 H   0  0  0  0  0  0
   12.5388   -3.4566   -3.8119 H   0  0  0  0  0  0
   12.1849   -1.8792   -2.1141 H   0  0  0  0  0  0
   11.7044   -0.6943   -3.3056 H   0  0  0  0  0  0
   11.8061   -1.3750   -5.7119 H   0  0  0  0  0  0
   12.5664   -2.7917   -6.0465 H   0  0  0  0  0  0
   13.3033   -1.6667   -5.1033 H   0  0  0  0  0  0
  1  6  1  0  0  0
  1  2  1  0  0  0
  1 33  1  0  0  0
  1 34  1  0  0  0
  2  3  1  0  0  0
  2 35  1  0  0  0
  2 36  1  0  0  0
  3  8  1  0  0  0
  3  4  1  0  0  0
  3  7  1  0  0  0
  4  5  1  0  0  0
  4 37  1  0  0  0
  4 38  1  0  0  0
  5  6  1  0  0  0
  5 39  1  0  0  0
  5 40  1  0  0  0
  6 41  1  0  0  0
  6 42  1  0  0  0
  7 14  1  0  0  0
  7 43  1  0  0  0
  8  9  1  0  0  0
  8 10  2  0  0  0
  9 11  1  0  0  0
  9 44  1  0  0  0
 11 12  1  0  0  0
 11 45  1  0  0  0
 11 46  1  0  0  0
 12 13  3  0  0  0
 14 16  2  0  0  0
 14 15  1  0  0  0
 15 17  2  0  0  0
 15 21  1  0  0  0
 17 18  1  0  0  0
 17 47  1  0  0  0
 18 19  2  0  0  0
 18 48  1  0  0  0
 19 20  1  0  0  0
 19 22  1  0  0  0
 20 21  2  0  0  0
 20 49  1  0  0  0
 21 50  1  0  0  0
 22 23  1  0  0  0
 22 26  2  0  0  0
 23 24  2  0  0  0
 24 25  1  0  0  0
 24 27  1  0  0  0
 25 26  1  0  0  0
 26 51  1  0  0  0
 27 28  1  0  0  0
 27 31  1  0  0  0
 28 29  1  0  0  0
 28 52  1  0  0  0
 28 53  1  0  0  0
 29 30  1  0  0  0
 29 54  1  0  0  0
 29 55  1  0  0  0
 30 31  1  0  0  0
 30 32  1  0  0  0
 30 56  1  0  0  0
 31 57  1  0  0  0
 31 58  1  0  0  0
 32 59  1  0  0  0
 32 60  1  0  0  0
 32 61  1  0  0  0
M  CHG  1  32   1
M  END
> <chembl_id>
CHEMBL200507

> <chembl_pref_name>
None

> <i_m_ct_stereo_status>
1

> <s_m_source_file>
sdf/inactives_sanitized.sdf

> <i_m_source_file_index>
229

> <i_lp_mmshare_version>
49012

> <i_f3d_flags>
0

> <s_epik_input>
W0NIMl0xW0NIMl1bQ0gyXVtDSDJdW0NIMl1DMShDKD1PKVtOSF1bQ0gyXUMjTilbTkhdQyg9TyljMltjSF1bY0hdYyhbY0hdW2NIXTIpLWMzbmMoc1tjSF0zKU40W0NIMl1bQ0gyXVtDQEhdKFtDSDJdNClbTkgyXQ==

> <s_epik_cmdline>
J2VwaWtfcHl0aG9uJywgJy1waHQnLCAnMC41JywgJy1waCcsICc3LjUnLCAnLW50JywgJy1tYScsICcyMDAnLCAnLWltYWUnLCAnPGluZmlsZS5tYWU+JywgJy1vbWFlJywgJzxvdXRmaWxlLm1hZT4n

> <r_lp_tautomer_probability>
1

> <r_epik_Ionization_Penalty>
  0.0065

> <r_epik_Ionization_Penalty_Charging>
  0.0059

> <r_epik_Ionization_Penalty_Neutral>
  0.0006

> <r_epik_State_Penalty>
 -0.0000

> <r_epik_Charging_Adjusted_Penalty>
0.00592820435580303

> <i_epik_Tot_Q>
1

> <i_epik_Tot_abs_Q>
1

> <s_lp_Force_Field>
OPLS3e

> <r_lp_Energy>
49.519881

> <b_lp_Chiralities_Consistent>
1

> <s_lp_Variant>
sdf/inactives_sanitized.sdf:229-1

$$$$
sdf/inactives_sanitized.sdf:230
                    3D
 Schrodinger Suite 2020-1.
 68 71  0  0  1  0            999 V2000
   -4.4590   -1.6118   -1.2000 C   0  0  0  0  0  0
   -2.9679   -1.1989   -1.1856 C   0  0  0  0  0  0
   -2.2845   -1.2182    0.2245 C   0  0  0  0  0  0
   -2.5494   -2.6412    0.8225 C   0  0  0  0  0  0
   -4.0346   -3.0693    0.8606 C   0  0  0  0  0  0
   -4.6747   -2.9870   -0.5385 C   0  0  0  0  0  0
   -0.8241   -0.9989    0.1363 N   0  0  0  0  0  0
   -2.9409   -0.1330    1.1559 C   0  0  0  0  0  0
   -2.7665   -0.2643    2.4854 N   0  0  0  0  0  0
   -3.4528    0.8808    0.6756 O   0  0  0  0  0  0
   -3.1812    0.7198    3.4811 C   0  0  0  0  0  0
   -2.4063    1.9705    3.4005 C   0  0  0  0  0  0
   -1.7972    2.9521    3.3377 N   0  0  0  0  0  0
   -0.1434    0.0980   -0.2688 C   0  0  0  0  0  0
    1.3622   -0.0407   -0.3289 C   0  0  0  0  0  0
   -0.6898    1.1519   -0.5989 O   0  0  0  0  0  0
    2.1078    0.8228   -1.1410 C   0  0  0  0  0  0
    3.4929    0.7059   -1.2167 C   0  0  0  0  0  0
    4.1671   -0.2750   -0.4810 C   0  0  0  0  0  0
    3.4232   -1.1318    0.3407 C   0  0  0  0  0  0
    2.0384   -1.0167    0.4177 C   0  0  0  0  0  0
    5.6617   -0.3993   -0.5815 C   0  0  0  0  0  0
    6.3338   -1.1312    0.2940 N   0  0  0  0  0  0
    7.6309   -1.1886    0.0881 C   0  0  0  0  0  0
    8.1343   -0.2299   -1.2741 S   0  0  0  0  0  0
    6.4762    0.1960   -1.5459 C   0  0  0  0  0  0
    8.5920   -1.9599    1.0113 C   0  0  1  0  0  0
    7.9208   -3.1957    1.6829 C   0  0  0  0  0  0
    7.4563   -4.2464    0.6521 C   0  0  0  0  0  0
    8.6899   -4.7191   -0.1517 N   0  3  2  0  0  0
    9.4377   -3.5492   -0.8324 C   0  0  0  0  0  0
    9.8293   -2.5226    0.2524 C   0  0  0  0  0  0
    8.2705   -5.7660   -1.2021 C   0  0  0  0  0  0
    9.0805   -1.0009    2.1202 C   0  0  0  0  0  0
   -4.8243   -1.6356   -2.2272 H   0  0  0  0  0  0
   -5.0619   -0.8619   -0.6868 H   0  0  0  0  0  0
   -2.8448   -0.2194   -1.6510 H   0  0  0  0  0  0
   -2.3883   -1.8224   -1.8686 H   0  0  0  0  0  0
   -1.9483   -3.3737    0.2803 H   0  0  0  0  0  0
   -2.1089   -2.7255    1.8176 H   0  0  0  0  0  0
   -4.1164   -4.0868    1.2444 H   0  0  0  0  0  0
   -4.5914   -2.4405    1.5565 H   0  0  0  0  0  0
   -5.7412   -3.2060   -0.4740 H   0  0  0  0  0  0
   -4.2445   -3.7617   -1.1754 H   0  0  0  0  0  0
   -0.2898   -1.8544    0.1000 H   0  0  0  0  0  0
   -2.2419   -1.0557    2.8280 H   0  0  0  0  0  0
   -4.2425    0.9528    3.3799 H   0  0  0  0  0  0
   -3.0389    0.2982    4.4760 H   0  0  0  0  0  0
    1.6209    1.5898   -1.7267 H   0  0  0  0  0  0
    4.0330    1.3890   -1.8550 H   0  0  0  0  0  0
    3.9117   -1.8975    0.9253 H   0  0  0  0  0  0
    1.5037   -1.6947    1.0673 H   0  0  0  0  0  0
    6.1982    0.8374   -2.3692 H   0  0  0  0  0  0
    8.6172   -3.6795    2.3705 H   0  0  0  0  0  0
    7.0677   -2.8877    2.2894 H   0  0  0  0  0  0
    7.0442   -5.1311    1.1394 H   0  0  0  0  0  0
    6.7285   -3.8585   -0.0622 H   0  0  0  0  0  0
   10.3172   -3.9806   -1.3123 H   0  0  0  0  0  0
    8.7758   -3.1395   -1.5968 H   0  0  0  0  0  0
   10.4038   -1.7154   -0.2041 H   0  0  0  0  0  0
   10.5109   -3.0129    0.9503 H   0  0  0  0  0  0
    7.5787   -5.2894   -1.8987 H   0  0  0  0  0  0
    7.7976   -6.5900   -0.6658 H   0  0  0  0  0  0
    9.1787   -6.1019   -1.7043 H   0  0  0  0  0  0
    9.7684   -1.4903    2.8113 H   0  0  0  0  0  0
    8.2460   -0.6156    2.7081 H   0  0  0  0  0  0
    9.5975   -0.1365    1.7007 H   0  0  0  0  0  0
    9.3299   -5.1505    0.5010 H   0  0  0  0  0  0
  1  6  1  0  0  0
  1  2  1  0  0  0
  1 35  1  0  0  0
  1 36  1  0  0  0
  2  3  1  0  0  0
  2 37  1  0  0  0
  2 38  1  0  0  0
  3  4  1  0  0  0
  3  7  1  0  0  0
  3  8  1  0  0  0
  4  5  1  0  0  0
  4 39  1  0  0  0
  4 40  1  0  0  0
  5  6  1  0  0  0
  5 41  1  0  0  0
  5 42  1  0  0  0
  6 43  1  0  0  0
  6 44  1  0  0  0
  7 14  1  0  0  0
  7 45  1  0  0  0
  8  9  1  0  0  0
  8 10  2  0  0  0
  9 11  1  0  0  0
  9 46  1  0  0  0
 11 12  1  0  0  0
 11 47  1  0  0  0
 11 48  1  0  0  0
 12 13  3  0  0  0
 14 15  1  0  0  0
 14 16  2  0  0  0
 15 17  2  0  0  0
 15 21  1  0  0  0
 17 18  1  0  0  0
 17 49  1  0  0  0
 18 19  2  0  0  0
 18 50  1  0  0  0
 19 20  1  0  0  0
 19 22  1  0  0  0
 20 21  2  0  0  0
 20 51  1  0  0  0
 21 52  1  0  0  0
 22 23  1  0  0  0
 22 26  2  0  0  0
 23 24  2  0  0  0
 24 25  1  0  0  0
 24 27  1  0  0  0
 25 26  1  0  0  0
 26 53  1  0  0  0
 27 28  1  0  0  0
 27 32  1  0  0  0
 27 34  1  0  0  0
 28 29  1  0  0  0
 28 54  1  0  0  0
 28 55  1  0  0  0
 29 30  1  0  0  0
 29 56  1  0  0  0
 29 57  1  0  0  0
 30 31  1  0  0  0
 30 33  1  0  0  0
 30 68  1  0  0  0
 31 32  1  0  0  0
 31 58  1  0  0  0
 31 59  1  0  0  0
 32 60  1  0  0  0
 32 61  1  0  0  0
 33 62  1  0  0  0
 33 63  1  0  0  0
 33 64  1  0  0  0
 34 65  1  0  0  0
 34 66  1  0  0  0
 34 67  1  0  0  0
M  CHG  1  30   1
M  END
> <chembl_id>
CHEMBL200166

> <chembl_pref_name>
None

> <s_m_source_file>
sdf/inactives_sanitized.sdf

> <i_m_source_file_index>
230

> <i_lp_mmshare_version>
49012

> <i_m_ct_stereo_status>
1

> <i_f3d_flags>
0

> <s_epik_input>
W0NIMl0xW0NIMl1bQ0gyXVtDSDJdW0NIMl1DMShDKD1PKVtOSF1bQ0gyXUMjTilbTkhdQyg9TyljMltjSF1bY0hdYyhbY0hdW2NIXTIpLWMzbmMoc1tjSF0zKUM0KFtDSDNdKVtDSDJdW0NIMl1OKFtDSDNdKVtDSDJdW0NIMl00

> <s_epik_cmdline>
J2VwaWtfcHl0aG9uJywgJy1waHQnLCAnMC41JywgJy1waCcsICc3LjUnLCAnLW50JywgJy1tYScsICcyMDAnLCAnLWltYWUnLCAnPGluZmlsZS5tYWU+JywgJy1vbWFlJywgJzxvdXRmaWxlLm1hZT4n

> <r_epik_Ionization_Penalty>
  0.0118

> <r_epik_Ionization_Penalty_Charging>
  0.0118

> <r_epik_Ionization_Penalty_Neutral>
  0.0000

> <r_epik_State_Penalty>
  0.0091

> <r_epik_Charging_Adjusted_Penalty>
0.020860093011374

> <i_epik_Tot_Q>
1

> <i_epik_Tot_abs_Q>
1

> <s_lp_Force_Field>
OPLS3e

> <r_lp_Energy>
63.91044

> <b_lp_Chiralities_Consistent>
1

> <s_lp_Variant>
sdf/inactives_sanitized.sdf:230-1

$$$$
sdf/inactives_sanitized.sdf:231
                    3D
 Schrodinger Suite 2020-1.
 61 61  0  0  1  0            999 V2000
   -2.4497    2.5637   -0.7380 C   0  0  0  0  0  0
   -0.1957    0.0463   -0.6075 C   0  0  0  0  0  0
   -0.7521    1.0852    0.0438 N   0  0  0  0  0  0
   -2.3360    2.2867   -2.2868 C   0  0  0  0  0  0
    1.9295   -2.2462   -1.5957 C   0  0  0  0  0  0
    1.3531    0.0031   -0.5911 C   0  0  2  0  0  0
   -2.1924    1.3601    0.1679 C   0  0  1  0  0  0
    1.9583   -0.8535   -1.6357 N   0  0  0  0  0  0
   -2.7306    3.6957   -0.3346 O   0  0  0  0  0  0
   -0.8476   -0.8193   -1.1933 O   0  0  0  0  0  0
    1.4658   -2.9512   -0.6962 O   0  0  0  0  0  0
   -2.8167    1.2740   -2.7967 O   0  0  0  0  0  0
    2.4890   -2.7182   -2.7262 O   0  0  0  0  0  0
    1.9238   -0.2674    0.8374 C   0  0  0  0  0  0
   -1.6266    3.2424   -2.9123 N   0  0  0  0  0  0
    2.5769   -4.1175   -2.9658 C   0  0  0  0  0  0
    3.2170   -4.3628   -4.3199 C   0  0  0  0  0  0
    0.9818    2.2748   -3.8786 O   0  0  0  0  0  0
   -2.6012    1.6291    1.6392 C   0  0  0  0  0  0
    3.4644   -0.1889    0.9687 C   0  0  0  0  0  0
   -1.2391    3.1977   -4.3229 C   0  0  0  0  0  0
   -0.1816    2.1260   -4.6697 C   0  0  0  0  0  0
    4.5380   -4.8107   -4.3962 C   0  0  0  0  0  0
    2.4801   -4.1425   -5.4861 C   0  0  0  0  0  0
    3.9226   -0.6316    2.3751 C   0  0  0  0  0  0
    4.0205    1.1989    0.5836 C   0  0  0  0  0  0
   -2.3949    0.4174    2.5635 C   0  0  0  0  0  0
    5.1226   -5.0371   -5.6398 C   0  0  0  0  0  0
    3.0649   -4.3701   -6.7292 C   0  0  0  0  0  0
    4.3834   -4.8162   -6.8002 C   0  0  0  0  0  0
   -0.1472    1.7311    0.5299 H   0  0  0  0  0  0
    1.6702    1.0074   -0.8753 H   0  0  0  0  0  0
   -2.7921    0.5160   -0.1819 H   0  0  0  0  0  0
    2.1749   -0.4152   -2.5188 H   0  0  0  0  0  0
    1.4955    0.4479    1.5420 H   0  0  0  0  0  0
    1.5842   -1.2426    1.1882 H   0  0  0  0  0  0
   -1.2816    4.0231   -2.3726 H   0  0  0  0  0  0
    3.1633   -4.6016   -2.1826 H   0  0  0  0  0  0
    1.5854   -4.5734   -2.9501 H   0  0  0  0  0  0
    1.6015    1.5816   -4.1172 H   0  0  0  0  0  0
   -2.0307    2.4677    2.0436 H   0  0  0  0  0  0
   -3.6522    1.9206    1.6843 H   0  0  0  0  0  0
    3.8922   -0.9112    0.2726 H   0  0  0  0  0  0
   -2.1298    3.0351   -4.9329 H   0  0  0  0  0  0
   -0.8718    4.1812   -4.6180 H   0  0  0  0  0  0
    0.0849    2.1625   -5.7264 H   0  0  0  0  0  0
   -0.5678    1.1285   -4.4561 H   0  0  0  0  0  0
    5.1114   -4.9827   -3.4968 H   0  0  0  0  0  0
    1.4584   -3.7953   -5.4297 H   0  0  0  0  0  0
    3.0970   -1.0217    2.9710 H   0  0  0  0  0  0
    4.3652    0.1821    2.9496 H   0  0  0  0  0  0
    4.6687   -1.4241    2.3070 H   0  0  0  0  0  0
    4.7997    1.5440    1.2631 H   0  0  0  0  0  0
    3.2433    1.9634    0.5766 H   0  0  0  0  0  0
    4.4603    1.1720   -0.4138 H   0  0  0  0  0  0
   -2.7192    0.6442    3.5795 H   0  0  0  0  0  0
   -1.3459    0.1233    2.6117 H   0  0  0  0  0  0
   -2.9676   -0.4441    2.2186 H   0  0  0  0  0  0
    6.1440   -5.3828   -5.7042 H   0  0  0  0  0  0
    2.4994   -4.2021   -7.6339 H   0  0  0  0  0  0
    4.8369   -4.9925   -7.7644 H   0  0  0  0  0  0
  1  4  1  0  0  0
  1  7  1  0  0  0
  1  9  2  0  0  0
  2  3  1  0  0  0
  2  6  1  0  0  0
  2 10  2  0  0  0
  3  7  1  0  0  0
  3 31  1  0  0  0
  4 12  2  0  0  0
  4 15  1  0  0  0
  5  8  1  0  0  0
  5 11  2  0  0  0
  5 13  1  0  0  0
  6  8  1  0  0  0
  6 14  1  0  0  0
  6 32  1  0  0  0
  7 19  1  0  0  0
  7 33  1  0  0  0
  8 34  1  0  0  0
 13 16  1  0  0  0
 14 20  1  0  0  0
 14 35  1  0  0  0
 14 36  1  0  0  0
 15 21  1  0  0  0
 15 37  1  0  0  0
 16 17  1  0  0  0
 16 38  1  0  0  0
 16 39  1  0  0  0
 17 23  2  0  0  0
 17 24  1  0  0  0
 18 22  1  0  0  0
 18 40  1  0  0  0
 19 27  1  0  0  0
 19 41  1  0  0  0
 19 42  1  0  0  0
 20 25  1  0  0  0
 20 26  1  0  0  0
 20 43  1  0  0  0
 21 22  1  0  0  0
 21 44  1  0  0  0
 21 45  1  0  0  0
 22 46  1  0  0  0
 22 47  1  0  0  0
 23 28  1  0  0  0
 23 48  1  0  0  0
 24 29  2  0  0  0
 24 49  1  0  0  0
 25 50  1  0  0  0
 25 51  1  0  0  0
 25 52  1  0  0  0
 26 53  1  0  0  0
 26 54  1  0  0  0
 26 55  1  0  0  0
 27 56  1  0  0  0
 27 57  1  0  0  0
 27 58  1  0  0  0
 28 30  2  0  0  0
 28 59  1  0  0  0
 29 30  1  0  0  0
 29 60  1  0  0  0
 30 61  1  0  0  0
M  END
> <chembl_id>
CHEMBL134121

> <chembl_pref_name>
None

> <s_m_source_file>
sdf/inactives_sanitized.sdf

> <i_m_source_file_index>
231

> <i_lp_mmshare_version>
49012

> <i_m_ct_stereo_status>
1

> <i_f3d_flags>
0

> <s_epik_input>
W09IXVtDSDJdW0NIMl1bTkhdQyg9TylDKD1PKVtDQEhdKFtDSDJdW0NIM10pW05IXUMoPU8pW0NAQEhdKFtDSDJdW0NIXShbQ0gzXSlbQ0gzXSlbTkhdQyg9TylPW0NIMl1jMVtjSF1bY0hdW2NIXVtjSF1bY0hdMQ==

> <s_epik_cmdline>
J2VwaWtfcHl0aG9uJywgJy1waHQnLCAnMC41JywgJy1waCcsICc3LjUnLCAnLW50JywgJy1tYScsICcyMDAnLCAnLWltYWUnLCAnPGluZmlsZS5tYWU+JywgJy1vbWFlJywgJzxvdXRmaWxlLm1hZT4n

> <r_lp_tautomer_probability>
1

> <r_epik_Ionization_Penalty>
  0.0000

> <r_epik_Ionization_Penalty_Charging>
  0.0000

> <r_epik_Ionization_Penalty_Neutral>
  0.0000

> <r_epik_State_Penalty>
 -0.0000

> <r_epik_Charging_Adjusted_Penalty>
0

> <i_epik_Tot_Q>
0

> <i_epik_Tot_abs_Q>
0

> <s_epik_Chemistry_Notes>
This compound has an ester and may undergo hydrolysis at high or low pH.

> <s_lp_Force_Field>
OPLS3e

> <r_lp_Energy>
28.280099

> <b_lp_Chiralities_Consistent>
1

> <s_lp_Variant>
sdf/inactives_sanitized.sdf:231-1

$$$$
sdf/inactives_sanitized.sdf:232
                    3D
 Schrodinger Suite 2020-1.
 71 72  0  0  1  0            999 V2000
    1.5938   -0.7194   -1.3966 C   0  0  0  0  0  0
   -0.8843    0.8148   -0.2055 C   0  0  0  0  0  0
   -0.0844   -0.1601    0.2696 N   0  0  0  0  0  0
    4.4249    3.1411   -6.6433 N   0  0  0  0  0  0
    2.8203   -0.0474   -2.1449 C   0  0  0  0  0  0
   -3.2698    0.3915   -2.2663 C   0  0  0  0  0  0
    4.5779    1.9263   -5.9974 C   0  0  0  0  0  0
   -2.3997    0.6402    0.0622 C   0  0  2  0  0  0
    1.3685   -0.2677    0.0531 C   0  0  1  0  0  0
   -3.2191    1.1043   -1.0718 N   0  0  0  0  0  0
    5.4678    3.3033   -7.5263 C   0  0  0  0  0  0
    6.2940    2.1993   -7.4536 C   0  0  0  0  0  0
    0.8671   -1.5310   -1.9819 O   0  0  0  0  0  0
    5.7400    1.3446   -6.5021 C   0  0  0  0  0  0
   -0.4719    1.8090   -0.8063 O   0  0  0  0  0  0
   -2.7323   -0.6962   -2.4920 O   0  0  0  0  0  0
    3.5790    0.7377   -1.5739 O   0  0  0  0  0  0
   -3.9976    1.0897   -3.1583 O   0  0  0  0  0  0
   -2.8580    1.4182    1.3272 C   0  0  0  0  0  0
    2.9061   -0.4304   -3.4327 N   0  0  0  0  0  0
    3.5808    1.4471   -4.9520 C   0  0  0  0  0  0
   -4.1811    0.6072   -4.4835 C   0  0  0  0  0  0
    3.9067    0.0510   -4.3821 C   0  0  0  0  0  0
    3.3474    4.0976   -6.4358 C   0  0  0  0  0  0
   -4.8928    1.6604   -5.3113 C   0  0  0  0  0  0
    1.9961   -1.2618    1.0642 C   0  0  0  0  0  0
   -2.2887    0.9134    2.6774 C   0  0  0  0  0  0
   -6.2682    1.5613   -5.5335 C   0  0  0  0  0  0
   -4.1672    2.7261   -5.8494 C   0  0  0  0  0  0
   -2.6510   -0.5606    2.9604 C   0  0  0  0  0  0
   -2.7031    1.8460    3.8359 C   0  0  0  0  0  0
    3.5332   -1.3396    1.0505 C   0  0  0  0  0  0
   -6.9181    2.5286   -6.2960 C   0  0  0  0  0  0
   -4.8178    3.6928   -6.6117 C   0  0  0  0  0  0
   -6.1900    3.5890   -6.8321 C   0  0  0  0  0  0
   -0.5073   -0.9393    0.7525 H   0  0  0  0  0  0
   -2.6301   -0.4172    0.2110 H   0  0  0  0  0  0
    1.7869    0.7227    0.2482 H   0  0  0  0  0  0
   -3.6193    2.0301   -1.0319 H   0  0  0  0  0  0
    5.5335    4.1941   -8.1340 H   0  0  0  0  0  0
    7.1958    2.0305   -8.0237 H   0  0  0  0  0  0
    6.1477    0.3890   -6.2072 H   0  0  0  0  0  0
   -2.6079    2.4747    1.2076 H   0  0  0  0  0  0
   -3.9470    1.3806    1.3967 H   0  0  0  0  0  0
    2.2237   -1.0848   -3.7879 H   0  0  0  0  0  0
    3.5404    2.1667   -4.1330 H   0  0  0  0  0  0
    2.5797    1.4252   -5.3854 H   0  0  0  0  0  0
   -3.2213    0.3744   -4.9491 H   0  0  0  0  0  0
   -4.7617   -0.3170   -4.4744 H   0  0  0  0  0  0
    3.9552   -0.6721   -5.1971 H   0  0  0  0  0  0
    4.8977    0.0466   -3.9227 H   0  0  0  0  0  0
    3.4918    4.9713   -7.0727 H   0  0  0  0  0  0
    3.3416    4.4203   -5.3943 H   0  0  0  0  0  0
    2.3946    3.6327   -6.6907 H   0  0  0  0  0  0
    1.6864   -0.9736    2.0702 H   0  0  0  0  0  0
    1.5813   -2.2614    0.9191 H   0  0  0  0  0  0
   -1.2015    0.9737    2.6209 H   0  0  0  0  0  0
   -6.8328    0.7392   -5.1173 H   0  0  0  0  0  0
   -3.1035    2.8057   -5.6766 H   0  0  0  0  0  0
   -3.4771   -0.9050    2.3378 H   0  0  0  0  0  0
   -2.9421   -0.7311    3.9969 H   0  0  0  0  0  0
   -1.7985   -1.2106    2.7611 H   0  0  0  0  0  0
   -3.3778    1.3648    4.5441 H   0  0  0  0  0  0
   -3.2124    2.7413    3.4783 H   0  0  0  0  0  0
   -1.8284    2.1781    4.3960 H   0  0  0  0  0  0
    3.8939   -1.9963    1.8425 H   0  0  0  0  0  0
    3.9798   -0.3572    1.2071 H   0  0  0  0  0  0
    3.9097   -1.7337    0.1064 H   0  0  0  0  0  0
   -7.9815    2.4573   -6.4712 H   0  0  0  0  0  0
   -4.2621    4.5191   -7.0299 H   0  0  0  0  0  0
   -6.6941    4.3383   -7.4244 H   0  0  0  0  0  0
  1  5  1  0  0  0
  1  9  1  0  0  0
  1 13  2  0  0  0
  2  3  1  0  0  0
  2  8  1  0  0  0
  2 15  2  0  0  0
  3  9  1  0  0  0
  3 36  1  0  0  0
  4  7  1  0  0  0
  4 11  1  0  0  0
  4 24  1  0  0  0
  5 17  2  0  0  0
  5 20  1  0  0  0
  6 10  1  0  0  0
  6 16  2  0  0  0
  6 18  1  0  0  0
  7 21  1  0  0  0
  7 14  2  0  0  0
  8 10  1  0  0  0
  8 19  1  0  0  0
  8 37  1  0  0  0
  9 26  1  0  0  0
  9 38  1  0  0  0
 10 39  1  0  0  0
 11 12  2  0  0  0
 11 40  1  0  0  0
 12 14  1  0  0  0
 12 41  1  0  0  0
 14 42  1  0  0  0
 18 22  1  0  0  0
 19 27  1  0  0  0
 19 43  1  0  0  0
 19 44  1  0  0  0
 20 23  1  0  0  0
 20 45  1  0  0  0
 21 23  1  0  0  0
 21 46  1  0  0  0
 21 47  1  0  0  0
 22 25  1  0  0  0
 22 48  1  0  0  0
 22 49  1  0  0  0
 23 50  1  0  0  0
 23 51  1  0  0  0
 24 52  1  0  0  0
 24 53  1  0  0  0
 24 54  1  0  0  0
 25 28  2  0  0  0
 25 29  1  0  0  0
 26 32  1  0  0  0
 26 55  1  0  0  0
 26 56  1  0  0  0
 27 30  1  0  0  0
 27 31  1  0  0  0
 27 57  1  0  0  0
 28 33  1  0  0  0
 28 58  1  0  0  0
 29 34  2  0  0  0
 29 59  1  0  0  0
 30 60  1  0  0  0
 30 61  1  0  0  0
 30 62  1  0  0  0
 31 63  1  0  0  0
 31 64  1  0  0  0
 31 65  1  0  0  0
 32 66  1  0  0  0
 32 67  1  0  0  0
 32 68  1  0  0  0
 33 35  2  0  0  0
 33 69  1  0  0  0
 34 35  1  0  0  0
 34 70  1  0  0  0
 35 71  1  0  0  0
M  END
> <chembl_id>
CHEMBL132773

> <chembl_pref_name>
None

> <s_m_source_file>
sdf/inactives_sanitized.sdf

> <i_m_source_file_index>
232

> <i_lp_mmshare_version>
49012

> <i_m_ct_stereo_status>
1

> <i_f3d_flags>
0

> <s_epik_input>
W2NIXTFbY0hdW2NIXWMobjFbQ0gzXSlbQ0gyXVtDSDJdW05IXUMoPU8pQyg9TylbQ0BIXShbQ0gyXVtDSDNdKVtOSF1DKD1PKVtDQEBIXShbQ0gyXVtDSF0oW0NIM10pW0NIM10pW05IXUMoPU8pT1tDSDJdYzJbY0hdW2NIXVtjSF1bY0hdW2NIXTI=

> <s_epik_cmdline>
J2VwaWtfcHl0aG9uJywgJy1waHQnLCAnMC41JywgJy1waCcsICc3LjUnLCAnLW50JywgJy1tYScsICcyMDAnLCAnLWltYWUnLCAnPGluZmlsZS5tYWU+JywgJy1vbWFlJywgJzxvdXRmaWxlLm1hZT4n

> <r_lp_tautomer_probability>
1

> <r_epik_Ionization_Penalty>
  0.0000

> <r_epik_Ionization_Penalty_Charging>
  0.0000

> <r_epik_Ionization_Penalty_Neutral>
  0.0000

> <r_epik_State_Penalty>
 -0.0000

> <r_epik_Charging_Adjusted_Penalty>
0

> <i_epik_Tot_Q>
0

> <i_epik_Tot_abs_Q>
0

> <s_epik_Chemistry_Notes>
This compound has an ester and may undergo hydrolysis at high or low pH.

> <s_lp_Force_Field>
OPLS3e

> <r_lp_Energy>
29.339685

> <b_lp_Chiralities_Consistent>
1

> <s_lp_Variant>
sdf/inactives_sanitized.sdf:232-1

$$$$
sdf/inactives_sanitized.sdf:233
                    3D
 Schrodinger Suite 2020-1.
 59 61  0  0  1  0            999 V2000
   -1.9966   -0.9535   -1.7618 C   0  0  0  0  0  0
   -0.4898   -0.6040   -1.7547 C   0  0  0  0  0  0
    0.0880    0.1495   -0.4909 C   0  0  0  0  0  0
   -0.6256   -0.3114    0.8267 C   0  0  0  0  0  0
   -2.1396   -0.5855    0.7376 C   0  0  0  0  0  0
   -2.4787   -1.5289   -0.4237 C   0  0  0  0  0  0
    1.5584    0.0282   -0.3652 N   0  0  0  0  0  0
   -0.1957    1.6894   -0.6166 C   0  0  0  0  0  0
   -1.2737    2.0987   -1.3129 N   0  0  0  0  0  0
    0.5206    2.5071   -0.0299 O   0  0  0  0  0  0
   -1.7119    3.4856   -1.4425 C   0  0  0  0  0  0
   -2.1921    4.0522   -0.1697 C   0  0  0  0  0  0
   -2.5700    4.4966    0.8296 N   0  0  0  0  0  0
    2.3173   -1.0876   -0.3020 C   0  0  0  0  0  0
    3.8068   -0.8723   -0.1362 C   0  0  0  0  0  0
    1.8562   -2.2274   -0.3863 O   0  0  0  0  0  0
    4.6959   -1.9111   -0.4459 C   0  0  0  0  0  0
    6.0683   -1.7428   -0.2861 C   0  0  0  0  0  0
    6.5730   -0.5353    0.2007 C   0  0  0  0  0  0
    5.6970    0.5122    0.5010 C   0  0  0  0  0  0
    4.3248    0.3437    0.3383 C   0  0  0  0  0  0
    8.0597   -0.3585    0.3674 C   0  0  0  0  0  0
    8.5640   -0.1588    1.6183 N   0  0  0  0  0  0
    8.7584   -0.3854   -0.6485 O   0  0  0  0  0  0
    7.7665   -0.3363    2.8533 C   0  0  0  0  0  0
    8.0649    0.8347    3.8174 C   0  0  0  0  0  0
    9.5021    0.9804    4.0531 N   0  0  0  0  0  0
   10.2191    1.2271    2.8010 C   0  0  0  0  0  0
   10.0140    0.0743    1.7907 C   0  0  0  0  0  0
    9.7522    2.0626    4.9998 C   0  0  0  0  0  0
   -2.5874   -0.0709   -2.0054 H   0  0  0  0  0  0
   -2.2015   -1.6670   -2.5609 H   0  0  0  0  0  0
    0.0259   -1.5562   -1.8575 H   0  0  0  0  0  0
   -0.1635   -0.1249   -2.6797 H   0  0  0  0  0  0
   -0.1469   -1.2324    1.1626 H   0  0  0  0  0  0
   -0.3736    0.3404    1.6662 H   0  0  0  0  0  0
   -2.4901   -1.0147    1.6770 H   0  0  0  0  0  0
   -2.6781    0.3556    0.6174 H   0  0  0  0  0  0
   -3.5548   -1.7024   -0.4602 H   0  0  0  0  0  0
   -2.0166   -2.5028   -0.2536 H   0  0  0  0  0  0
    2.0017    0.8589   -0.0004 H   0  0  0  0  0  0
   -1.8778    1.3986   -1.7180 H   0  0  0  0  0  0
   -0.9079    4.1131   -1.8302 H   0  0  0  0  0  0
   -2.5300    3.5320   -2.1613 H   0  0  0  0  0  0
    4.3328   -2.8594   -0.8168 H   0  0  0  0  0  0
    6.7330   -2.5581   -0.5353 H   0  0  0  0  0  0
    6.0736    1.4572    0.8670 H   0  0  0  0  0  0
    3.6759    1.1696    0.5928 H   0  0  0  0  0  0
    6.6921   -0.3890    2.6874 H   0  0  0  0  0  0
    8.0681   -1.2665    3.3364 H   0  0  0  0  0  0
    7.6887    1.7652    3.3867 H   0  0  0  0  0  0
    7.5486    0.6719    4.7647 H   0  0  0  0  0  0
    9.8424    2.1568    2.3690 H   0  0  0  0  0  0
   11.2837    1.3587    2.9993 H   0  0  0  0  0  0
   10.4798   -0.8283    2.1881 H   0  0  0  0  0  0
   10.5188    0.3377    0.8600 H   0  0  0  0  0  0
   10.8192    2.1523    5.2082 H   0  0  0  0  0  0
    9.2508    1.8675    5.9487 H   0  0  0  0  0  0
    9.3983    3.0222    4.6188 H   0  0  0  0  0  0
  1  2  1  0  0  0
  1  6  1  0  0  0
  1 31  1  0  0  0
  1 32  1  0  0  0
  2  3  1  0  0  0
  2 33  1  0  0  0
  2 34  1  0  0  0
  3  8  1  0  0  0
  3  4  1  0  0  0
  3  7  1  0  0  0
  4  5  1  0  0  0
  4 35  1  0  0  0
  4 36  1  0  0  0
  5  6  1  0  0  0
  5 37  1  0  0  0
  5 38  1  0  0  0
  6 39  1  0  0  0
  6 40  1  0  0  0
  7 14  1  0  0  0
  7 41  1  0  0  0
  8  9  1  0  0  0
  8 10  2  0  0  0
  9 11  1  0  0  0
  9 42  1  0  0  0
 11 12  1  0  0  0
 11 43  1  0  0  0
 11 44  1  0  0  0
 12 13  3  0  0  0
 14 15  1  0  0  0
 14 16  2  0  0  0
 15 17  2  0  0  0
 15 21  1  0  0  0
 17 18  1  0  0  0
 17 45  1  0  0  0
 18 19  2  0  0  0
 18 46  1  0  0  0
 19 20  1  0  0  0
 19 22  1  0  0  0
 20 21  2  0  0  0
 20 47  1  0  0  0
 21 48  1  0  0  0
 22 23  1  0  0  0
 22 24  2  0  0  0
 23 25  1  0  0  0
 23 29  1  0  0  0
 25 26  1  0  0  0
 25 49  1  0  0  0
 25 50  1  0  0  0
 26 27  1  0  0  0
 26 51  1  0  0  0
 26 52  1  0  0  0
 27 28  1  0  0  0
 27 30  1  0  0  0
 28 29  1  0  0  0
 28 53  1  0  0  0
 28 54  1  0  0  0
 29 55  1  0  0  0
 29 56  1  0  0  0
 30 57  1  0  0  0
 30 58  1  0  0  0
 30 59  1  0  0  0
M  END
> <chembl_id>
CHEMBL199487

> <chembl_pref_name>
None

> <s_m_source_file>
sdf/inactives_sanitized.sdf

> <i_m_source_file_index>
233

> <i_lp_mmshare_version>
49012

> <i_m_ct_stereo_status>
1

> <i_f3d_flags>
0

> <s_epik_input>
W0NIMl0xW0NIMl1bQ0gyXVtDSDJdW0NIMl1DMShDKD1PKVtOSF1bQ0gyXUMjTilbTkhdQyg9TyljMltjSF1bY0hdYyhbY0hdW2NIXTIpQyg9TylOM1tDSDJdW0NIMl1OKFtDSDNdKVtDSDJdW0NIMl0z

> <s_epik_cmdline>
J2VwaWtfcHl0aG9uJywgJy1waHQnLCAnMC41JywgJy1waCcsICc3LjUnLCAnLW50JywgJy1tYScsICcyMDAnLCAnLWltYWUnLCAnPGluZmlsZS5tYWU+JywgJy1vbWFlJywgJzxvdXRmaWxlLm1hZT4n

> <r_epik_Ionization_Penalty>
  0.2146

> <r_epik_Ionization_Penalty_Charging>
  0.0000

> <r_epik_Ionization_Penalty_Neutral>
  0.2146

> <r_epik_State_Penalty>
  0.2048

> <r_epik_Charging_Adjusted_Penalty>
0.204791817225104

> <i_epik_Tot_Q>
0

> <i_epik_Tot_abs_Q>
0

> <s_lp_Force_Field>
OPLS3e

> <r_lp_Energy>
62.023415

> <b_lp_Chiralities_Consistent>
1

> <s_lp_Variant>
sdf/inactives_sanitized.sdf:233-1

$$$$
sdf/inactives_sanitized.sdf:234
                    3D
 Schrodinger Suite 2020-1.
 44 45  0  0  1  0            999 V2000
   -2.2787   -0.9315   -1.0312 C   0  0  0  0  0  0
   -0.7562   -0.7092   -1.1977 C   0  0  0  0  0  0
   -0.0611    0.0474   -0.0128 C   0  0  0  0  0  0
   -0.4367   -0.7457    1.2844 C   0  0  0  0  0  0
   -1.9528   -0.9546    1.5083 C   0  0  0  0  0  0
   -2.6067   -1.6443    0.2952 C   0  0  0  0  0  0
    1.4118    0.0810   -0.1497 N   0  0  0  0  0  0
   -0.6232    1.5130    0.0830 C   0  0  0  0  0  0
   -0.4793    2.1622    1.2546 N   0  0  0  0  0  0
   -1.0349    2.0985   -0.9211 O   0  0  0  0  0  0
   -0.9091    3.5356    1.5015 C   0  0  0  0  0  0
   -2.3734    3.6915    1.4463 C   0  0  0  0  0  0
   -3.5233    3.8134    1.4036 N   0  0  0  0  0  0
    2.1349    0.6866   -1.1752 C   0  0  0  0  0  0
    3.4512    0.4490   -0.9742 O   0  0  0  0  0  0
    1.6758    1.3344   -2.1180 O   0  0  0  0  0  0
    4.4559    0.9870   -1.8369 C   0  0  0  0  0  0
    4.6719    2.4822   -1.6163 C   0  0  0  0  0  0
    4.7957    3.3280   -2.7212 C   0  0  0  0  0  0
    4.9988    4.6929   -2.5335 C   0  0  0  0  0  0
    5.0806    5.2074   -1.2413 C   0  0  0  0  0  0
    4.9628    4.3693   -0.1346 C   0  0  0  0  0  0
    4.7605    3.0044   -0.3218 C   0  0  0  0  0  0
   -2.8056    0.0224   -1.0721 H   0  0  0  0  0  0
   -2.6595   -1.5175   -1.8683 H   0  0  0  0  0  0
   -0.2408   -1.6565   -1.3657 H   0  0  0  0  0  0
   -0.5575   -0.1990   -2.1417 H   0  0  0  0  0  0
    0.0064   -0.2706    2.1616 H   0  0  0  0  0  0
    0.0944   -1.6998    1.2881 H   0  0  0  0  0  0
   -2.1153   -1.5541    2.4047 H   0  0  0  0  0  0
   -2.4435    0.0016    1.6945 H   0  0  0  0  0  0
   -2.2603   -2.6775    0.2404 H   0  0  0  0  0  0
   -3.6875   -1.6944    0.4334 H   0  0  0  0  0  0
    1.9338   -0.4984    0.4912 H   0  0  0  0  0  0
   -0.1206    1.6530    2.0490 H   0  0  0  0  0  0
   -0.4518    4.2209    0.7858 H   0  0  0  0  0  0
   -0.5750    3.8385    2.4937 H   0  0  0  0  0  0
    5.3962    0.4721   -1.6395 H   0  0  0  0  0  0
    4.1988    0.7864   -2.8787 H   0  0  0  0  0  0
    4.7325    2.9322   -3.7243 H   0  0  0  0  0  0
    5.0929    5.3491   -3.3862 H   0  0  0  0  0  0
    5.2378    6.2662   -1.0967 H   0  0  0  0  0  0
    5.0288    4.7763    0.8637 H   0  0  0  0  0  0
    4.6711    2.3559    0.5377 H   0  0  0  0  0  0
  1  2  1  0  0  0
  1  6  1  0  0  0
  1 24  1  0  0  0
  1 25  1  0  0  0
  2  3  1  0  0  0
  2 26  1  0  0  0
  2 27  1  0  0  0
  3  7  1  0  0  0
  3  8  1  0  0  0
  3  4  1  0  0  0
  4  5  1  0  0  0
  4 28  1  0  0  0
  4 29  1  0  0  0
  5  6  1  0  0  0
  5 30  1  0  0  0
  5 31  1  0  0  0
  6 32  1  0  0  0
  6 33  1  0  0  0
  7 14  1  0  0  0
  7 34  1  0  0  0
  8  9  1  0  0  0
  8 10  2  0  0  0
  9 11  1  0  0  0
  9 35  1  0  0  0
 11 12  1  0  0  0
 11 36  1  0  0  0
 11 37  1  0  0  0
 12 13  3  0  0  0
 14 15  1  0  0  0
 14 16  2  0  0  0
 15 17  1  0  0  0
 17 18  1  0  0  0
 17 38  1  0  0  0
 17 39  1  0  0  0
 18 19  2  0  0  0
 18 23  1  0  0  0
 19 20  1  0  0  0
 19 40  1  0  0  0
 20 21  2  0  0  0
 20 41  1  0  0  0
 21 22  1  0  0  0
 21 42  1  0  0  0
 22 23  2  0  0  0
 22 43  1  0  0  0
 23 44  1  0  0  0
M  END
> <chembl_id>
CHEMBL200151

> <chembl_pref_name>
None

> <s_m_source_file>
sdf/inactives_sanitized.sdf

> <i_m_source_file_index>
234

> <i_lp_mmshare_version>
49012

> <i_m_ct_stereo_status>
1

> <i_f3d_flags>
0

> <s_epik_input>
W0NIMl0xW0NIMl1bQ0gyXVtDSDJdW0NIMl1DMShDKD1PKVtOSF1bQ0gyXUMjTilbTkhdQyg9TylPW0NIMl1jMltjSF1bY0hdW2NIXVtjSF1bY0hdMg==

> <s_epik_cmdline>
J2VwaWtfcHl0aG9uJywgJy1waHQnLCAnMC41JywgJy1waCcsICc3LjUnLCAnLW50JywgJy1tYScsICcyMDAnLCAnLWltYWUnLCAnPGluZmlsZS5tYWU+JywgJy1vbWFlJywgJzxvdXRmaWxlLm1hZT4n

> <r_lp_tautomer_probability>
1

> <r_epik_Ionization_Penalty>
  0.0000

> <r_epik_Ionization_Penalty_Charging>
  0.0000

> <r_epik_Ionization_Penalty_Neutral>
  0.0000

> <r_epik_State_Penalty>
 -0.0000

> <r_epik_Charging_Adjusted_Penalty>
0

> <i_epik_Tot_Q>
0

> <i_epik_Tot_abs_Q>
0

> <s_epik_Chemistry_Notes>
This compound has an ester and may undergo hydrolysis at high or low pH.

> <s_lp_Force_Field>
OPLS3e

> <r_lp_Energy>
29.955432

> <b_lp_Chiralities_Consistent>
1

> <s_lp_Variant>
sdf/inactives_sanitized.sdf:234-1

$$$$
sdf/inactives_sanitized.sdf:235
                    3D
 Schrodinger Suite 2020-1.
 50 52  0  0  1  0            999 V2000
   -0.2209   -2.2912   -1.2914 C   0  0  0  0  0  0
   -0.6247   -0.7994   -1.2860 C   0  0  0  0  0  0
   -0.0484   -0.0221   -0.0593 C   0  0  0  0  0  0
   -0.6165   -0.7522    1.2094 C   0  0  0  0  0  0
   -0.2029   -2.2392    1.2670 C   0  0  0  0  0  0
   -0.6618   -2.9976    0.0059 C   0  0  0  0  0  0
    1.4319   -0.0022   -0.1085 N   0  0  0  0  0  0
   -0.6590    1.4194   -0.2036 C   0  0  0  0  0  0
   -1.8515    1.6889    0.3631 N   0  0  0  0  0  0
   -0.0674    2.2686   -0.8750 O   0  0  0  0  0  0
   -2.5611    2.9597    0.2434 C   0  0  0  0  0  0
   -3.0213    3.2281   -1.1306 C   0  0  0  0  0  0
   -3.3831    3.4381   -2.2095 N   0  0  0  0  0  0
    2.2849    0.6290    0.7282 C   0  0  0  0  0  0
    3.7560    0.3950    0.4725 C   0  0  0  0  0  0
    1.9127    1.3393    1.6643 O   0  0  0  0  0  0
    4.6795    0.5263    1.5205 C   0  0  0  0  0  0
    6.0545    0.3222    1.3253 C   0  0  0  0  0  0
    6.4942   -0.0121    0.0368 C   0  0  0  0  0  0
    5.5941   -0.1424   -1.0180 C   0  0  0  0  0  0
    4.2335    0.0592   -0.8033 C   0  0  0  0  0  0
    7.0220    0.4541    2.4578 C   0  0  0  0  0  0
    8.3161    0.9511    2.2421 C   0  0  0  0  0  0
    9.2191    1.0708    3.2952 C   0  0  0  0  0  0
    8.8362    0.6921    4.5783 C   0  0  0  0  0  0
    7.5575    0.1971    4.8150 C   0  0  0  0  0  0
    6.6568    0.0803    3.7596 C   0  0  0  0  0  0
   -0.6625   -2.7932   -2.1531 H   0  0  0  0  0  0
    0.8599   -2.3852   -1.4086 H   0  0  0  0  0  0
   -0.2060   -0.3772   -2.2026 H   0  0  0  0  0  0
   -1.7052   -0.6764   -1.3952 H   0  0  0  0  0  0
   -0.1985   -0.2880    2.1040 H   0  0  0  0  0  0
   -1.6977   -0.6539    1.3174 H   0  0  0  0  0  0
    0.8805   -2.3207    1.3698 H   0  0  0  0  0  0
   -0.6263   -2.7091    2.1555 H   0  0  0  0  0  0
   -1.7494   -3.0829    0.0157 H   0  0  0  0  0  0
   -0.2777   -4.0181    0.0240 H   0  0  0  0  0  0
    1.8375   -0.7612   -0.6357 H   0  0  0  0  0  0
   -2.3354    0.9482    0.8493 H   0  0  0  0  0  0
   -3.4348    2.9412    0.8948 H   0  0  0  0  0  0
   -1.9319    3.7874    0.5741 H   0  0  0  0  0  0
    4.3247    0.7961    2.5053 H   0  0  0  0  0  0
    7.5425   -0.1854   -0.1566 H   0  0  0  0  0  0
    5.9524   -0.4007   -2.0037 H   0  0  0  0  0  0
    3.5598   -0.0416   -1.6424 H   0  0  0  0  0  0
    8.6293    1.2595    1.2554 H   0  0  0  0  0  0
   10.2118    1.4577    3.1174 H   0  0  0  0  0  0
    9.5361    0.7833    5.3959 H   0  0  0  0  0  0
    7.2658   -0.0975    5.8123 H   0  0  0  0  0  0
    5.6728   -0.3168    3.9620 H   0  0  0  0  0  0
  1  2  1  0  0  0
  1  6  1  0  0  0
  1 28  1  0  0  0
  1 29  1  0  0  0
  2  3  1  0  0  0
  2 30  1  0  0  0
  2 31  1  0  0  0
  3  7  1  0  0  0
  3  8  1  0  0  0
  3  4  1  0  0  0
  4  5  1  0  0  0
  4 32  1  0  0  0
  4 33  1  0  0  0
  5  6  1  0  0  0
  5 34  1  0  0  0
  5 35  1  0  0  0
  6 36  1  0  0  0
  6 37  1  0  0  0
  7 14  1  0  0  0
  7 38  1  0  0  0
  8  9  1  0  0  0
  8 10  2  0  0  0
  9 11  1  0  0  0
  9 39  1  0  0  0
 11 12  1  0  0  0
 11 40  1  0  0  0
 11 41  1  0  0  0
 12 13  3  0  0  0
 14 15  1  0  0  0
 14 16  2  0  0  0
 15 17  2  0  0  0
 15 21  1  0  0  0
 17 18  1  0  0  0
 17 42  1  0  0  0
 18 19  2  0  0  0
 18 22  1  0  0  0
 19 20  1  0  0  0
 19 43  1  0  0  0
 20 21  2  0  0  0
 20 44  1  0  0  0
 21 45  1  0  0  0
 22 23  2  0  0  0
 22 27  1  0  0  0
 23 24  1  0  0  0
 23 46  1  0  0  0
 24 25  2  0  0  0
 24 47  1  0  0  0
 25 26  1  0  0  0
 25 48  1  0  0  0
 26 27  2  0  0  0
 26 49  1  0  0  0
 27 50  1  0  0  0
M  END
> <chembl_id>
CHEMBL200289

> <chembl_pref_name>
None

> <s_m_source_file>
sdf/inactives_sanitized.sdf

> <i_m_source_file_index>
235

> <i_lp_mmshare_version>
49012

> <i_m_ct_stereo_status>
1

> <i_f3d_flags>
0

> <s_epik_input>
W0NIMl0xW0NIMl1bQ0gyXVtDSDJdW0NIMl1DMShDKD1PKVtOSF1bQ0gyXUMjTilbTkhdQyg9TyljMltjSF1jKFtjSF1bY0hdW2NIXTIpLWMzW2NIXVtjSF1bY0hdW2NIXVtjSF0z

> <s_epik_cmdline>
J2VwaWtfcHl0aG9uJywgJy1waHQnLCAnMC41JywgJy1waCcsICc3LjUnLCAnLW50JywgJy1tYScsICcyMDAnLCAnLWltYWUnLCAnPGluZmlsZS5tYWU+JywgJy1vbWFlJywgJzxvdXRmaWxlLm1hZT4n

> <r_lp_tautomer_probability>
1

> <r_epik_Ionization_Penalty>
  0.0000

> <r_epik_Ionization_Penalty_Charging>
  0.0000

> <r_epik_Ionization_Penalty_Neutral>
  0.0000

> <r_epik_State_Penalty>
 -0.0000

> <r_epik_Charging_Adjusted_Penalty>
0

> <i_epik_Tot_Q>
0

> <i_epik_Tot_abs_Q>
0

> <s_lp_Force_Field>
OPLS3e

> <r_lp_Energy>
45.405327

> <b_lp_Chiralities_Consistent>
1

> <s_lp_Variant>
sdf/inactives_sanitized.sdf:235-1

$$$$
sdf/inactives_sanitized.sdf:236
                    3D
 Schrodinger Suite 2020-1.
 42 43  0  0  1  0            999 V2000
   -0.1911   -2.1854   -1.3136 C   0  0  0  0  0  0
   -0.5119   -0.6747   -1.2733 C   0  0  0  0  0  0
    0.0543    0.0410   -0.0007 C   0  0  0  0  0  0
   -0.5526   -0.7130    1.2320 C   0  0  0  0  0  0
   -0.2244   -2.2214    1.2385 C   0  0  0  0  0  0
   -0.7057   -2.9066   -0.0539 C   0  0  0  0  0  0
    1.5348    0.0313   -0.0164 N   0  0  0  0  0  0
   -0.5153    1.5050   -0.0115 C   0  0  0  0  0  0
   -0.3721    2.2167   -1.1472 N   0  0  0  0  0  0
   -0.9247    2.0365    1.0238 O   0  0  0  0  0  0
   -0.7051    3.6312   -1.2909 C   0  0  0  0  0  0
    0.1812    4.5067   -0.5039 C   0  0  0  0  0  0
    0.8777    5.1942    0.1134 N   0  0  0  0  0  0
    2.4013    0.6307    0.8314 C   0  0  0  0  0  0
    3.8726    0.3671    0.5833 C   0  0  0  0  0  0
    2.0418    1.3730    1.7471 O   0  0  0  0  0  0
    4.8373    1.1516    1.2328 C   0  0  0  0  0  0
    6.1951    0.9276    1.0209 C   0  0  0  0  0  0
    6.6035   -0.0869    0.1581 C   0  0  0  0  0  0
    5.6601   -0.8789   -0.4924 C   0  0  0  0  0  0
    4.3023   -0.6547   -0.2809 C   0  0  0  0  0  0
    7.9628   -0.3112   -0.0556 N   0  0  0  0  0  0
   -0.6335   -2.6358   -2.2030 H   0  0  0  0  0  0
    0.8862   -2.3341   -1.4031 H   0  0  0  0  0  0
   -0.0424   -0.2510   -2.1636 H   0  0  0  0  0  0
   -1.5797   -0.4883   -1.4107 H   0  0  0  0  0  0
   -1.6258   -0.5379    1.3355 H   0  0  0  0  0  0
   -0.1176   -0.3082    2.1478 H   0  0  0  0  0  0
    0.8515   -2.3656    1.3504 H   0  0  0  0  0  0
   -0.6859   -2.6982    2.1041 H   0  0  0  0  0  0
   -0.3871   -3.9497   -0.0639 H   0  0  0  0  0  0
   -1.7966   -2.9221   -0.0683 H   0  0  0  0  0  0
    1.9272   -0.7426   -0.5315 H   0  0  0  0  0  0
    0.0783    1.7789   -1.9373 H   0  0  0  0  0  0
   -0.6120    3.9126   -2.3398 H   0  0  0  0  0  0
   -1.7396    3.8192   -0.9993 H   0  0  0  0  0  0
    4.5460    1.9462    1.9054 H   0  0  0  0  0  0
    6.9223    1.5449    1.5289 H   0  0  0  0  0  0
    5.9719   -1.6686   -1.1610 H   0  0  0  0  0  0
    3.5965   -1.2897   -0.7965 H   0  0  0  0  0  0
    8.2525   -1.0466   -0.6839 H   0  0  0  0  0  0
    8.6425    0.2684    0.4154 H   0  0  0  0  0  0
  1  2  1  0  0  0
  1  6  1  0  0  0
  1 23  1  0  0  0
  1 24  1  0  0  0
  2  3  1  0  0  0
  2 25  1  0  0  0
  2 26  1  0  0  0
  3  7  1  0  0  0
  3  8  1  0  0  0
  3  4  1  0  0  0
  4  5  1  0  0  0
  4 27  1  0  0  0
  4 28  1  0  0  0
  5  6  1  0  0  0
  5 29  1  0  0  0
  5 30  1  0  0  0
  6 31  1  0  0  0
  6 32  1  0  0  0
  7 14  1  0  0  0
  7 33  1  0  0  0
  8  9  1  0  0  0
  8 10  2  0  0  0
  9 11  1  0  0  0
  9 34  1  0  0  0
 11 12  1  0  0  0
 11 35  1  0  0  0
 11 36  1  0  0  0
 12 13  3  0  0  0
 14 15  1  0  0  0
 14 16  2  0  0  0
 15 17  2  0  0  0
 15 21  1  0  0  0
 17 18  1  0  0  0
 17 37  1  0  0  0
 18 19  2  0  0  0
 18 38  1  0  0  0
 19 20  1  0  0  0
 19 22  1  0  0  0
 20 21  2  0  0  0
 20 39  1  0  0  0
 21 40  1  0  0  0
 22 41  1  0  0  0
 22 42  1  0  0  0
M  END
> <chembl_id>
CHEMBL200203

> <chembl_pref_name>
None

> <s_m_source_file>
sdf/inactives_sanitized.sdf

> <i_m_source_file_index>
236

> <i_lp_mmshare_version>
49012

> <i_m_ct_stereo_status>
1

> <i_f3d_flags>
0

> <s_epik_input>
W0NIMl0xW0NIMl1bQ0gyXVtDSDJdW0NIMl1DMShDKD1PKVtOSF1bQ0gyXUMjTilbTkhdQyg9TyljMltjSF1bY0hdYyhbTkgyXSlbY0hdW2NIXTI=

> <s_epik_cmdline>
J2VwaWtfcHl0aG9uJywgJy1waHQnLCAnMC41JywgJy1waCcsICc3LjUnLCAnLW50JywgJy1tYScsICcyMDAnLCAnLWltYWUnLCAnPGluZmlsZS5tYWU+JywgJy1vbWFlJywgJzxvdXRmaWxlLm1hZT4n

> <r_lp_tautomer_probability>
1

> <r_epik_Ionization_Penalty>
  0.0001

> <r_epik_Ionization_Penalty_Charging>
  0.0000

> <r_epik_Ionization_Penalty_Neutral>
  0.0001

> <r_epik_State_Penalty>
 -0.0000

> <r_epik_Charging_Adjusted_Penalty>
0

> <i_epik_Tot_Q>
0

> <i_epik_Tot_abs_Q>
0

> <s_lp_Force_Field>
OPLS3e

> <r_lp_Energy>
33.160785

> <b_lp_Chiralities_Consistent>
1

> <s_lp_Variant>
sdf/inactives_sanitized.sdf:236-1

$$$$
sdf/inactives_sanitized.sdf:237
                    3D
 Schrodinger Suite 2020-1.
 71 74  0  0  1  0            999 V2000
   -2.9114   -3.1739   -6.5926 C   0  0  0  0  0  0
   -3.5338   -2.3181   -7.4997 C   0  0  0  0  0  0
   -4.0526   -1.1024   -7.0646 C   0  0  0  0  0  0
   -3.9463   -0.7408   -5.7245 C   0  0  0  0  0  0
   -3.3229   -1.5954   -4.8011 C   0  0  0  0  0  0
   -2.7921   -2.8289   -5.2377 C   0  0  0  0  0  0
   -3.1617   -1.2094   -3.4600 N   0  0  0  0  0  0
   -4.0219   -0.4461   -2.6791 C   0  0  0  0  0  0
   -5.1366   -0.0256   -2.9975 O   0  0  0  0  0  0
   -3.4280   -0.2280   -1.4934 O   0  0  0  0  0  0
   -4.0254    0.5736   -0.4738 C   0  0  0  0  0  0
   -2.9856    1.2488    0.4864 C   0  0  1  0  0  0
   -3.3288    1.1503    1.8998 N   0  0  0  0  0  0
   -3.2929    0.0259    2.5145 C   0  0  0  0  0  0
   -1.4767    0.9613    0.2405 C   0  0  0  0  0  0
   -1.0671   -0.3326    0.4708 N   0  0  0  0  0  0
   -3.6253    0.0088    3.9596 C   0  0  0  0  0  0
   -4.6991    0.7666    4.4514 C   0  0  0  0  0  0
   -5.0056    0.7524    5.8096 C   0  0  0  0  0  0
   -4.2393   -0.0145    6.6829 C   0  0  0  0  0  0
   -3.1670   -0.7667    6.2110 C   0  0  0  0  0  0
   -2.8585   -0.7539    4.8534 C   0  0  0  0  0  0
   -2.9294   -1.2711    1.8733 C   0  0  0  0  0  0
   -1.8926   -1.4271    0.9015 C   0  0  0  0  0  0
   -1.6318   -2.7349    0.4446 C   0  0  0  0  0  0
   -2.3867   -3.8322    0.8392 C   0  0  0  0  0  0
   -3.4271   -3.6610    1.7358 C   0  0  0  0  0  0
   -3.6900   -2.3969    2.2450 C   0  0  0  0  0  0
   -0.7428    1.8742   -0.1524 O   0  0  0  0  0  0
    0.3603   -0.6017    0.1250 C   0  0  0  0  0  0
    0.5538   -0.8735   -1.3878 C   0  0  0  0  0  0
    1.8239   -1.0050   -1.8097 N   0  0  0  0  0  0
   -0.4128   -0.9794   -2.1445 O   0  0  0  0  0  0
    2.2240   -1.3222   -3.1839 C   0  0  0  0  0  0
    1.7550   -0.3258   -4.2360 C   0  0  0  0  0  0
    0.8883   -0.6165   -5.2243 C   0  0  0  0  0  0
    0.3760    0.6333   -6.4111 S   0  0  0  0  0  0
    0.9239   -0.0992   -8.0597 C   0  0  0  0  0  0
   -1.0895    0.6755   -6.3993 O   0  0  0  0  0  0
    1.1471    1.8591   -6.1744 O   0  0  0  0  0  0
   -2.1086   -3.8054   -4.2672 C   0  0  0  0  0  0
   -0.9918   -3.2594   -3.7887 F   0  0  0  0  0  0
   -2.9198   -4.0852   -3.2460 F   0  0  0  0  0  0
   -1.7779   -4.9610   -4.8472 F   0  0  0  0  0  0
   -3.6560   -2.7629   -9.1629 Cl  0  0  0  0  0  0
   -2.5164   -4.1110   -6.9570 H   0  0  0  0  0  0
   -4.5298   -0.4319   -7.7639 H   0  0  0  0  0  0
   -4.3331    0.2204   -5.4204 H   0  0  0  0  0  0
   -2.3353   -1.5612   -2.9979 H   0  0  0  0  0  0
   -4.6414    1.3570   -0.9201 H   0  0  0  0  0  0
   -4.7159   -0.0615    0.0828 H   0  0  0  0  0  0
   -3.0853    2.3119    0.2599 H   0  0  0  0  0  0
   -5.3056    1.3659    3.7867 H   0  0  0  0  0  0
   -5.8345    1.3349    6.1840 H   0  0  0  0  0  0
   -4.4778   -0.0246    7.7364 H   0  0  0  0  0  0
   -2.5751   -1.3559    6.8958 H   0  0  0  0  0  0
   -2.0183   -1.3381    4.5051 H   0  0  0  0  0  0
   -0.8412   -2.9254   -0.2636 H   0  0  0  0  0  0
   -2.1658   -4.8128    0.4440 H   0  0  0  0  0  0
   -4.0248   -4.5065    2.0432 H   0  0  0  0  0  0
   -4.5068   -2.3064    2.9478 H   0  0  0  0  0  0
    1.0076    0.2200    0.4378 H   0  0  0  0  0  0
    0.7153   -1.4687    0.6830 H   0  0  0  0  0  0
    2.5718   -0.8439   -1.1508 H   0  0  0  0  0  0
    3.3141   -1.3232   -3.2041 H   0  0  0  0  0  0
    1.9230   -2.3449   -3.4226 H   0  0  0  0  0  0
    2.1587    0.6723   -4.1464 H   0  0  0  0  0  0
    0.4527   -1.5966   -5.3489 H   0  0  0  0  0  0
    0.6387    0.5847   -8.8586 H   0  0  0  0  0  0
    0.4315   -1.0610   -8.2025 H   0  0  0  0  0  0
    2.0057   -0.2296   -8.0506 H   0  0  0  0  0  0
  1  6  2  0  0  0
  1  2  1  0  0  0
  1 46  1  0  0  0
  2  3  2  0  0  0
  2 45  1  0  0  0
  3  4  1  0  0  0
  3 47  1  0  0  0
  4  5  2  0  0  0
  4 48  1  0  0  0
  5  6  1  0  0  0
  5  7  1  0  0  0
  6 41  1  0  0  0
  7  8  1  0  0  0
  7 49  1  0  0  0
  8  9  2  0  0  0
  8 10  1  0  0  0
 10 11  1  0  0  0
 11 12  1  0  0  0
 11 50  1  0  0  0
 11 51  1  0  0  0
 12 13  1  0  0  0
 12 15  1  0  0  0
 12 52  1  0  0  0
 13 14  2  0  0  0
 14 17  1  0  0  0
 14 23  1  0  0  0
 15 29  2  0  0  0
 15 16  1  0  0  0
 16 30  1  0  0  0
 16 24  1  0  0  0
 17 22  1  0  0  0
 17 18  2  0  0  0
 18 19  1  0  0  0
 18 53  1  0  0  0
 19 20  2  0  0  0
 19 54  1  0  0  0
 20 21  1  0  0  0
 20 55  1  0  0  0
 21 22  2  0  0  0
 21 56  1  0  0  0
 22 57  1  0  0  0
 23 24  2  0  0  0
 23 28  1  0  0  0
 24 25  1  0  0  0
 25 26  2  0  0  0
 25 58  1  0  0  0
 26 27  1  0  0  0
 26 59  1  0  0  0
 27 28  2  0  0  0
 27 60  1  0  0  0
 28 61  1  0  0  0
 30 31  1  0  0  0
 30 62  1  0  0  0
 30 63  1  0  0  0
 31 32  1  0  0  0
 31 33  2  0  0  0
 32 34  1  0  0  0
 32 64  1  0  0  0
 34 35  1  0  0  0
 34 65  1  0  0  0
 34 66  1  0  0  0
 35 36  2  0  0  0
 35 67  1  0  0  0
 36 37  1  0  0  0
 36 68  1  0  0  0
 37 38  1  0  0  0
 37 39  2  0  0  0
 37 40  2  0  0  0
 38 69  1  0  0  0
 38 70  1  0  0  0
 38 71  1  0  0  0
 41 42  1  0  0  0
 41 43  1  0  0  0
 41 44  1  0  0  0
M  END
> <chembl_id>
CHEMBL407354

> <chembl_pref_name>
None

> <i_m_ct_stereo_status>
1

> <s_m_source_file>
sdf/inactives_sanitized.sdf

> <i_m_source_file_index>
237

> <i_lp_mmshare_version>
49012

> <i_f3d_flags>
0

> <s_epik_input>
Q2xjMVtjSF1jKEMoRikoRilGKWMoW2NIXVtjSF0xKVtOSF1DKD1PKU9bQ0gyXVtDQEBIXShOPUMyYzNbY0hdW2NIXVtjSF1bY0hdW2NIXTMpQyg9TylOKGMoYzI0KVtjSF1bY0hdW2NIXVtjSF00KVtDSDJdQyg9TylbTkhdW0NIMl0vW0NIXT1bQ0hdL1MoPU8pKD1PKVtDSDNd

> <s_epik_cmdline>
J2VwaWtfcHl0aG9uJywgJy1waHQnLCAnMC41JywgJy1waCcsICc3LjUnLCAnLW50JywgJy1tYScsICcyMDAnLCAnLWltYWUnLCAnPGluZmlsZS5tYWU+JywgJy1vbWFlJywgJzxvdXRmaWxlLm1hZT4n

> <r_lp_tautomer_probability>
1

> <r_epik_Ionization_Penalty>
  0.0001

> <r_epik_Ionization_Penalty_Charging>
  0.0000

> <r_epik_Ionization_Penalty_Neutral>
  0.0001

> <r_epik_State_Penalty>
 -0.0000

> <r_epik_Charging_Adjusted_Penalty>
0

> <i_epik_Tot_Q>
0

> <i_epik_Tot_abs_Q>
0

> <s_epik_Chemistry_Notes>
This compound has an ester and may undergo hydrolysis at high or low pH. This compound has an imine and may undergo hydrolysis.

> <s_lp_Force_Field>
OPLS3e

> <r_lp_Energy>
58.60718

> <b_lp_Chiralities_Consistent>
1

> <s_lp_Variant>
sdf/inactives_sanitized.sdf:237-1

$$$$
sdf/inactives_sanitized.sdf:238
                    3D
 Schrodinger Suite 2020-1.
 64 65  0  0  1  0            999 V2000
    0.0380    0.1167   -0.0207 C   0  0  0  0  0  0
    2.1406   -0.7740    0.9407 N   0  0  0  0  0  0
    2.2448   -0.3491    2.2160 C   0  0  0  0  0  0
    1.5736   -0.0087   -0.1776 C   0  0  1  0  0  0
   -0.4537    1.3667   -0.0677 N   0  0  0  0  0  0
    4.5495   -1.1632    6.6354 C   0  0  0  0  0  0
    2.8644   -1.3202    3.1973 C   0  0  0  0  0  0
   -2.2354    2.6150   -1.0840 C   0  0  0  0  0  0
    3.9816   -1.7172    5.3441 C   0  0  0  0  0  0
   -1.8630    1.7406    0.1058 C   0  0  2  0  0  0
    3.3983   -0.8490    4.4070 C   0  0  0  0  0  0
   -0.6506   -0.8959    0.1183 O   0  0  0  0  0  0
    1.8886    0.7747    2.5791 O   0  0  0  0  0  0
    4.4750    0.0338    6.9109 O   0  0  0  0  0  0
   -3.3280    2.4840   -1.6404 O   0  0  0  0  0  0
   -2.1111    2.4870    1.4395 C   0  0  0  0  0  0
    5.1396   -2.0251    7.4713 N   0  0  0  0  0  0
    1.9131   -0.6709   -1.5591 C   0  0  2  0  0  0
   -1.8897    1.6090    2.6890 C   0  0  0  0  0  0
   -2.0834    2.3718    3.9909 C   0  0  0  0  0  0
   -1.2459    3.7239   -1.5115 C   0  0  0  0  0  0
   -1.7756    4.4942   -2.5757 O   0  0  0  0  0  0
    2.9134   -2.6986    2.9367 C   0  0  0  0  0  0
    4.0175   -3.0897    5.0477 C   0  0  0  0  0  0
    3.4867   -3.5742    3.8550 C   0  0  0  0  0  0
    3.4440   -0.7934   -1.7739 C   0  0  0  0  0  0
    1.2698    0.0385   -2.7782 C   0  0  0  0  0  0
   -0.9743    2.8751    4.6765 C   0  0  0  0  0  0
   -3.3705    2.5699    4.4976 C   0  0  0  0  0  0
    3.8457   -1.6809   -2.9620 C   0  0  0  0  0  0
   -3.5484    3.2701    5.6881 C   0  0  0  0  0  0
   -1.1529    3.5741    5.8676 C   0  0  0  0  0  0
   -2.4389    3.7686    6.3679 C   0  0  0  0  0  0
    2.4553   -1.7052    0.7122 H   0  0  0  0  0  0
    2.0258    0.9860   -0.1602 H   0  0  0  0  0  0
    0.1953    2.1375   -0.1314 H   0  0  0  0  0  0
   -2.5044    0.8554    0.0956 H   0  0  0  0  0  0
    3.3637    0.2114    4.6188 H   0  0  0  0  0  0
   -1.4619    3.3621    1.5120 H   0  0  0  0  0  0
   -3.1282    2.8834    1.4726 H   0  0  0  0  0  0
    5.1986   -3.0051    7.2377 H   0  0  0  0  0  0
    5.5304   -1.6962    8.3419 H   0  0  0  0  0  0
    1.5159   -1.6882   -1.5421 H   0  0  0  0  0  0
   -2.5708    0.7567    2.6720 H   0  0  0  0  0  0
   -0.8909    1.1708    2.6780 H   0  0  0  0  0  0
   -1.0372    4.3758   -0.6633 H   0  0  0  0  0  0
   -0.3041    3.2804   -1.8350 H   0  0  0  0  0  0
   -1.1435    5.1802   -2.8033 H   0  0  0  0  0  0
    2.5051   -3.1108    2.0250 H   0  0  0  0  0  0
    4.4529   -3.8013    5.7341 H   0  0  0  0  0  0
    3.5179   -4.6326    3.6423 H   0  0  0  0  0  0
    3.8690    0.2018   -1.9096 H   0  0  0  0  0  0
    3.9253   -1.1983   -0.8839 H   0  0  0  0  0  0
    1.5993    1.0756   -2.8473 H   0  0  0  0  0  0
    0.1810    0.0393   -2.7304 H   0  0  0  0  0  0
    1.5313   -0.4536   -3.7146 H   0  0  0  0  0  0
    0.0235    2.7252    4.2895 H   0  0  0  0  0  0
   -4.2310    2.1846    3.9699 H   0  0  0  0  0  0
    4.8351   -2.1117   -2.8065 H   0  0  0  0  0  0
    3.8810   -1.1067   -3.8881 H   0  0  0  0  0  0
    3.1473   -2.5059   -3.1049 H   0  0  0  0  0  0
   -4.5417    3.4257    6.0826 H   0  0  0  0  0  0
   -0.2983    3.9632    6.4013 H   0  0  0  0  0  0
   -2.5769    4.3109    7.2918 H   0  0  0  0  0  0
  1  4  1  0  0  0
  1  5  1  0  0  0
  1 12  2  0  0  0
  2  4  1  0  0  0
  2  3  1  0  0  0
  2 34  1  0  0  0
  3  7  1  0  0  0
  3 13  2  0  0  0
  4 18  1  0  0  0
  4 35  1  0  0  0
  5 10  1  0  0  0
  5 36  1  0  0  0
  6  9  1  0  0  0
  6 14  2  0  0  0
  6 17  1  0  0  0
  7 11  1  0  0  0
  7 23  2  0  0  0
  8 10  1  0  0  0
  8 15  2  0  0  0
  8 21  1  0  0  0
  9 11  2  0  0  0
  9 24  1  0  0  0
 10 16  1  0  0  0
 10 37  1  0  0  0
 11 38  1  0  0  0
 16 19  1  0  0  0
 16 39  1  0  0  0
 16 40  1  0  0  0
 17 41  1  0  0  0
 17 42  1  0  0  0
 18 26  1  0  0  0
 18 27  1  0  0  0
 18 43  1  0  0  0
 19 20  1  0  0  0
 19 44  1  0  0  0
 19 45  1  0  0  0
 20 28  2  0  0  0
 20 29  1  0  0  0
 21 22  1  0  0  0
 21 46  1  0  0  0
 21 47  1  0  0  0
 22 48  1  0  0  0
 23 25  1  0  0  0
 23 49  1  0  0  0
 24 25  2  0  0  0
 24 50  1  0  0  0
 25 51  1  0  0  0
 26 30  1  0  0  0
 26 52  1  0  0  0
 26 53  1  0  0  0
 27 54  1  0  0  0
 27 55  1  0  0  0
 27 56  1  0  0  0
 28 32  1  0  0  0
 28 57  1  0  0  0
 29 31  2  0  0  0
 29 58  1  0  0  0
 30 59  1  0  0  0
 30 60  1  0  0  0
 30 61  1  0  0  0
 31 33  1  0  0  0
 31 62  1  0  0  0
 32 33  2  0  0  0
 32 63  1  0  0  0
 33 64  1  0  0  0
M  END
> <chembl_id>
CHEMBL97402

> <chembl_pref_name>
None

> <i_m_ct_stereo_status>
1

> <s_m_source_file>
sdf/inactives_sanitized.sdf

> <i_m_source_file_index>
238

> <i_lp_mmshare_version>
49012

> <i_f3d_flags>
0

> <s_epik_input>
W2NIXTFbY0hdW2NIXWMoQyg9TylbTkgyXSlbY0hdYzFDKD1PKVtOSF1bQ0BASF0oW0NAQEhdKFtDSDNdKVtDSDJdW0NIM10pQyg9TylbTkhdW0NASF0oQyg9TylbQ0gyXVtPSF0pW0NIMl1bQ0gyXWMyW2NIXVtjSF1bY0hdW2NIXVtjSF0y

> <s_epik_cmdline>
J2VwaWtfcHl0aG9uJywgJy1waHQnLCAnMC41JywgJy1waCcsICc3LjUnLCAnLW50JywgJy1tYScsICcyMDAnLCAnLWltYWUnLCAnPGluZmlsZS5tYWU+JywgJy1vbWFlJywgJzxvdXRmaWxlLm1hZT4n

> <r_lp_tautomer_probability>
1

> <r_epik_Ionization_Penalty>
  0.0001

> <r_epik_Ionization_Penalty_Charging>
  0.0000

> <r_epik_Ionization_Penalty_Neutral>
  0.0001

> <r_epik_State_Penalty>
 -0.0000

> <r_epik_Charging_Adjusted_Penalty>
0

> <i_epik_Tot_Q>
0

> <i_epik_Tot_abs_Q>
0

> <s_lp_Force_Field>
OPLS3e

> <r_lp_Energy>
45.377625

> <b_lp_Chiralities_Consistent>
1

> <s_lp_Variant>
sdf/inactives_sanitized.sdf:238-1

$$$$
sdf/inactives_sanitized.sdf:239
                    3D
 Schrodinger Suite 2020-1.
 74 77  0  0  1  0            999 V2000
   -2.0053   -2.1730   -2.4964 C   0  0  0  0  0  0
   -0.9102   -2.8149   -2.9925 O   0  0  0  0  0  0
   -1.3276   -3.7020   -3.9371 C   0  0  0  0  0  0
   -1.8521   -1.1575   -1.4879 C   0  0  0  0  0  0
   -0.0842   -7.0238   -7.5275 C   0  0  0  0  0  0
   -0.5849   -0.9628   -1.0797 N   0  0  0  0  0  0
   -3.1413   -2.6600   -3.1282 C   0  0  0  0  0  0
   -2.7120   -3.6267   -4.0386 C   0  0  0  0  0  0
   -0.1494    0.0196   -0.0857 C   0  0  2  0  0  0
    1.3675    0.2529   -0.2354 C   0  0  0  0  0  0
    0.3187   -6.1159   -6.3664 C   0  0  0  0  0  0
   -0.2846   -4.5139   -4.6303 C   0  0  0  0  0  0
   -0.6431   -5.3499   -5.6946 C   0  0  0  0  0  0
   -2.8229   -0.5296   -1.0618 O   0  0  0  0  0  0
   -0.5279   -0.4002    1.3657 C   0  0  0  0  0  0
    2.1369   -0.7101   -0.2651 O   0  0  0  0  0  0
    0.7160   -8.0881   -7.6134 F   0  0  0  0  0  0
   -1.3378   -7.4611   -7.3941 F   0  0  0  0  0  0
    0.0044   -6.3356   -8.6653 F   0  0  0  0  0  0
    1.7717    1.5344   -0.2481 N   0  0  0  0  0  0
    3.5258    2.6581    3.5602 C   0  0  0  0  0  0
    3.1769    2.7064    2.1996 N   0  0  0  0  0  0
    4.1194    2.6656    6.3032 C   0  0  0  0  0  0
    3.1188    3.7223    4.3658 C   0  0  0  0  0  0
    4.2345    1.5950    4.1337 C   0  0  0  0  0  0
    4.5264    1.6041    5.4951 C   0  0  0  0  0  0
    3.4103    3.7299    5.7266 C   0  0  0  0  0  0
   -0.1647    0.6064    2.4924 C   0  0  0  0  0  0
    4.4533    2.5869    7.6417 O   0  0  0  0  0  0
    1.6556   -6.0372   -5.9590 C   0  0  0  0  0  0
    1.0581   -4.4515   -4.2385 C   0  0  0  0  0  0
    2.0228   -5.2096   -4.8995 C   0  0  0  0  0  0
    3.1721    1.9498   -0.1907 C   0  0  0  0  0  0
    3.7859    1.8132    1.2179 C   0  0  0  0  0  0
    4.0666    3.6413    8.5168 C   0  0  0  0  0  0
   -0.4048    0.0032    3.8944 C   0  0  0  0  0  0
   -0.9435    1.9400    2.3805 C   0  0  0  0  0  0
   -0.5117    2.9430    3.4694 C   0  0  0  0  0  0
    0.0638    0.9657    5.0051 C   0  0  0  0  0  0
   -0.6251    2.3422    4.8875 C   0  0  0  0  0  0
    0.1504   -1.5281   -1.4792 H   0  0  0  0  0  0
   -4.1607   -2.3481   -2.9531 H   0  0  0  0  0  0
   -3.3405   -4.2041   -4.6999 H   0  0  0  0  0  0
   -0.6693    0.9516   -0.3153 H   0  0  0  0  0  0
   -1.6760   -5.4006   -6.0081 H   0  0  0  0  0  0
   -1.6001   -0.5976    1.4158 H   0  0  0  0  0  0
   -0.0538   -1.3604    1.5796 H   0  0  0  0  0  0
    1.0785    2.2679   -0.2164 H   0  0  0  0  0  0
    2.8570    3.6003    1.8559 H   0  0  0  0  0  0
    2.5683    4.5503    3.9428 H   0  0  0  0  0  0
    4.5634    0.7526    3.5448 H   0  0  0  0  0  0
    5.0724    0.7781    5.9269 H   0  0  0  0  0  0
    3.0768    4.5696    6.3169 H   0  0  0  0  0  0
    0.8998    0.8378    2.4319 H   0  0  0  0  0  0
    2.4168   -6.6142   -6.4637 H   0  0  0  0  0  0
    1.3640   -3.8155   -3.4204 H   0  0  0  0  0  0
    3.0563   -5.1543   -4.5910 H   0  0  0  0  0  0
    3.7704    1.4015   -0.9209 H   0  0  0  0  0  0
    3.2094    2.9943   -0.5023 H   0  0  0  0  0  0
    4.8489    2.0545    1.1785 H   0  0  0  0  0  0
    3.7398    0.7761    1.5513 H   0  0  0  0  0  0
    4.4100    3.4158    9.5263 H   0  0  0  0  0  0
    2.9820    3.7522    8.5548 H   0  0  0  0  0  0
    4.5138    4.5913    8.2208 H   0  0  0  0  0  0
   -1.4572   -0.2571    4.0194 H   0  0  0  0  0  0
    0.1286   -0.9440    3.9846 H   0  0  0  0  0  0
   -0.7919    2.3905    1.4002 H   0  0  0  0  0  0
   -2.0167    1.7502    2.4351 H   0  0  0  0  0  0
    0.5169    3.2506    3.2852 H   0  0  0  0  0  0
   -1.1145    3.8491    3.4014 H   0  0  0  0  0  0
   -0.1382    0.5314    5.9849 H   0  0  0  0  0  0
    1.1459    1.0934    4.9460 H   0  0  0  0  0  0
   -0.2017    3.0324    5.6181 H   0  0  0  0  0  0
   -1.6796    2.2362    5.1462 H   0  0  0  0  0  0
  1  2  1  0  0  0
  1  4  1  0  0  0
  1  7  2  0  0  0
  2  3  1  0  0  0
  3 12  1  0  0  0
  3  8  2  0  0  0
  4  6  1  0  0  0
  4 14  2  0  0  0
  5 11  1  0  0  0
  5 17  1  0  0  0
  5 18  1  0  0  0
  5 19  1  0  0  0
  6  9  1  0  0  0
  6 41  1  0  0  0
  7  8  1  0  0  0
  7 42  1  0  0  0
  8 43  1  0  0  0
  9 10  1  0  0  0
  9 15  1  0  0  0
  9 44  1  0  0  0
 10 16  2  0  0  0
 10 20  1  0  0  0
 11 13  2  0  0  0
 11 30  1  0  0  0
 12 13  1  0  0  0
 12 31  2  0  0  0
 13 45  1  0  0  0
 15 28  1  0  0  0
 15 46  1  0  0  0
 15 47  1  0  0  0
 20 33  1  0  0  0
 20 48  1  0  0  0
 21 22  1  0  0  0
 21 24  1  0  0  0
 21 25  2  0  0  0
 22 34  1  0  0  0
 22 49  1  0  0  0
 23 26  2  0  0  0
 23 29  1  0  0  0
 23 27  1  0  0  0
 24 27  2  0  0  0
 24 50  1  0  0  0
 25 26  1  0  0  0
 25 51  1  0  0  0
 26 52  1  0  0  0
 27 53  1  0  0  0
 28 36  1  0  0  0
 28 37  1  0  0  0
 28 54  1  0  0  0
 29 35  1  0  0  0
 30 32  2  0  0  0
 30 55  1  0  0  0
 31 32  1  0  0  0
 31 56  1  0  0  0
 32 57  1  0  0  0
 33 34  1  0  0  0
 33 58  1  0  0  0
 33 59  1  0  0  0
 34 60  1  0  0  0
 34 61  1  0  0  0
 35 62  1  0  0  0
 35 63  1  0  0  0
 35 64  1  0  0  0
 36 39  1  0  0  0
 36 65  1  0  0  0
 36 66  1  0  0  0
 37 38  1  0  0  0
 37 67  1  0  0  0
 37 68  1  0  0  0
 38 40  1  0  0  0
 38 69  1  0  0  0
 38 70  1  0  0  0
 39 40  1  0  0  0
 39 71  1  0  0  0
 39 72  1  0  0  0
 40 73  1  0  0  0
 40 74  1  0  0  0
M  END
> <chembl_id>
CHEMBL198450

> <chembl_pref_name>
None

> <i_m_ct_stereo_status>
1

> <s_m_source_file>
sdf/inactives_sanitized.sdf

> <i_m_source_file_index>
239

> <i_lp_mmshare_version>
49012

> <i_f3d_flags>
0

> <s_epik_input>
RkMoRikoRiljMVtjSF1jKFtjSF1bY0hdW2NIXTEpLWMoW2NIXVtjSF0yKW9jMkMoPU8pW05IXVtDQEBIXShbQ0gyXVtDSF0zW0NIMl1bQ0gyXVtDSDJdW0NIMl1bQ0gyXTMpQyg9TylbTkhdW0NIMl1bQ0gyXVtOSF1jNFtjSF1bY0hdYyhbY0hdW2NIXTQpT1tDSDNd

> <s_epik_cmdline>
J2VwaWtfcHl0aG9uJywgJy1waHQnLCAnMC41JywgJy1waCcsICc3LjUnLCAnLW50JywgJy1tYScsICcyMDAnLCAnLWltYWUnLCAnPGluZmlsZS5tYWU+JywgJy1vbWFlJywgJzxvdXRmaWxlLm1hZT4n

> <r_lp_tautomer_probability>
1

> <r_epik_Ionization_Penalty>
  0.0017

> <r_epik_Ionization_Penalty_Charging>
  0.0000

> <r_epik_Ionization_Penalty_Neutral>
  0.0017

> <r_epik_State_Penalty>
 -0.0000

> <r_epik_Charging_Adjusted_Penalty>
0

> <i_epik_Tot_Q>
0

> <i_epik_Tot_abs_Q>
0

> <s_lp_Force_Field>
OPLS3e

> <r_lp_Energy>
37.335952

> <b_lp_Chiralities_Consistent>
1

> <s_lp_Variant>
sdf/inactives_sanitized.sdf:239-1

$$$$
sdf/inactives_sanitized.sdf:240
                    3D
 Schrodinger Suite 2020-1.
 68 70  0  0  1  0            999 V2000
   -2.5647    4.4645    2.4964 C   0  0  0  0  0  0
   -1.2240    4.7327    2.2490 N   0  0  0  0  0  0
   -3.2924    3.7086    1.8470 O   0  0  0  0  0  0
   -0.5169    4.1095    1.1191 C   0  0  2  0  0  0
    0.0678    2.7312    1.4911 C   0  0  0  0  0  0
    0.5680    5.0745    0.5789 C   0  0  0  0  0  0
    0.0461    6.3851    0.0113 C   0  0  0  0  0  0
    0.7583    2.6159    2.5047 O   0  0  0  0  0  0
   -0.1855    1.7258    0.6336 N   0  0  0  0  0  0
    0.2769    0.3427    0.7763 C   0  0  2  0  0  0
   -0.1230   -0.2496    2.0694 C   0  0  0  0  0  0
   -0.4364   -0.7145    3.0819 N   0  0  0  0  0  0
   -0.4388    6.4391   -1.3128 C   0  0  0  0  0  0
   -1.0012    7.6118   -1.7994 C   0  0  0  0  0  0
   -1.1163    8.7264   -0.9779 C   0  0  0  0  0  0
   -0.6818    8.6750    0.3407 C   0  0  0  0  0  0
   -0.1157    7.5119    0.8460 C   0  0  0  0  0  0
   -2.9536    5.1686    3.5760 O   0  0  0  0  0  0
   -4.2857    5.0773    4.0650 C   0  0  0  0  0  0
   -4.4662    6.0463    5.2185 C   0  0  0  0  0  0
   -4.3022    5.6032    6.5330 C   0  0  0  0  0  0
   -4.4647    6.4953    7.5901 C   0  0  0  0  0  0
   -4.7904    7.8246    7.3276 C   0  0  0  0  0  0
   -4.9549    8.2711    6.0177 C   0  0  0  0  0  0
   -4.7921    7.3800    4.9600 C   0  0  0  0  0  0
    1.7864    0.1880    0.4819 C   0  0  0  0  0  0
    2.2855   -1.2702    0.5384 C   0  0  0  0  0  0
    3.6071   -1.4134    0.0273 O   0  0  0  0  0  0
    4.6449   -0.8897    0.8494 C   0  0  0  0  0  0
    5.9819   -1.1674    0.2002 C   0  0  0  0  0  0
    6.3531   -0.5359   -0.9031 N   0  0  0  0  0  0
    7.6130   -0.9769   -1.2687 N   0  0  0  0  0  0
    7.9684   -1.8956   -0.3660 N   0  0  0  0  0  0
    6.9885   -2.0443    0.5818 C   0  0  0  0  0  0
    9.2780   -2.5426   -0.4399 C   0  0  0  0  0  0
    9.2122   -4.0898   -0.3283 C   0  0  0  0  0  0
    8.3312   -4.7779   -1.3862 C   0  0  0  0  0  0
    8.1918   -4.2206   -2.4979 O   0  5  0  0  0  0
    7.8300   -5.8776   -1.0658 O   0  0  0  0  0  0
   -0.7139    5.3469    2.8669 H   0  0  0  0  0  0
   -1.2137    3.9741    0.2863 H   0  0  0  0  0  0
    1.2852    5.3095    1.3682 H   0  0  0  0  0  0
    1.1458    4.5817   -0.2055 H   0  0  0  0  0  0
   -0.7689    1.9165   -0.1683 H   0  0  0  0  0  0
   -0.2736   -0.2321    0.0306 H   0  0  0  0  0  0
   -0.3713    5.5712   -1.9525 H   0  0  0  0  0  0
   -1.3578    7.6549   -2.8180 H   0  0  0  0  0  0
   -1.5575    9.6339   -1.3629 H   0  0  0  0  0  0
   -0.7916    9.5405    0.9776 H   0  0  0  0  0  0
    0.2017    7.4751    1.8780 H   0  0  0  0  0  0
   -5.0053    5.3129    3.2786 H   0  0  0  0  0  0
   -4.5011    4.0604    4.3980 H   0  0  0  0  0  0
   -4.0480    4.5728    6.7362 H   0  0  0  0  0  0
   -4.3385    6.1583    8.6086 H   0  0  0  0  0  0
   -4.9167    8.5161    8.1475 H   0  0  0  0  0  0
   -5.2068    9.3033    5.8234 H   0  0  0  0  0  0
   -4.9172    7.7254    3.9438 H   0  0  0  0  0  0
    2.0014    0.5949   -0.5075 H   0  0  0  0  0  0
    2.3537    0.7914    1.1909 H   0  0  0  0  0  0
    2.2195   -1.6750    1.5499 H   0  0  0  0  0  0
    1.6390   -1.8905   -0.0830 H   0  0  0  0  0  0
    4.5218    0.1836    0.9982 H   0  0  0  0  0  0
    4.5986   -1.3513    1.8374 H   0  0  0  0  0  0
    7.0936   -2.7343    1.4056 H   0  0  0  0  0  0
    9.7983   -2.2434   -1.3528 H   0  0  0  0  0  0
    9.8789   -2.1440    0.3781 H   0  0  0  0  0  0
   10.2209   -4.4852   -0.4499 H   0  0  0  0  0  0
    8.9209   -4.3848    0.6812 H   0  0  0  0  0  0
  1  2  1  0  0  0
  1  3  2  0  0  0
  1 18  1  0  0  0
  2  4  1  0  0  0
  2 40  1  0  0  0
  4  5  1  0  0  0
  4  6  1  0  0  0
  4 41  1  0  0  0
  5  8  2  0  0  0
  5  9  1  0  0  0
  6  7  1  0  0  0
  6 42  1  0  0  0
  6 43  1  0  0  0
  7 13  2  0  0  0
  7 17  1  0  0  0
  9 10  1  0  0  0
  9 44  1  0  0  0
 10 11  1  0  0  0
 10 26  1  0  0  0
 10 45  1  0  0  0
 11 12  3  0  0  0
 13 14  1  0  0  0
 13 46  1  0  0  0
 14 15  2  0  0  0
 14 47  1  0  0  0
 15 16  1  0  0  0
 15 48  1  0  0  0
 16 17  2  0  0  0
 16 49  1  0  0  0
 17 50  1  0  0  0
 18 19  1  0  0  0
 19 20  1  0  0  0
 19 51  1  0  0  0
 19 52  1  0  0  0
 20 21  2  0  0  0
 20 25  1  0  0  0
 21 22  1  0  0  0
 21 53  1  0  0  0
 22 23  2  0  0  0
 22 54  1  0  0  0
 23 24  1  0  0  0
 23 55  1  0  0  0
 24 25  2  0  0  0
 24 56  1  0  0  0
 25 57  1  0  0  0
 26 27  1  0  0  0
 26 58  1  0  0  0
 26 59  1  0  0  0
 27 28  1  0  0  0
 27 60  1  0  0  0
 27 61  1  0  0  0
 28 29  1  0  0  0
 29 30  1  0  0  0
 29 62  1  0  0  0
 29 63  1  0  0  0
 30 31  1  0  0  0
 30 34  2  0  0  0
 31 32  2  0  0  0
 32 33  1  0  0  0
 33 34  1  0  0  0
 33 35  1  0  0  0
 34 64  1  0  0  0
 35 36  1  0  0  0
 35 65  1  0  0  0
 35 66  1  0  0  0
 36 37  1  0  0  0
 36 67  1  0  0  0
 36 68  1  0  0  0
 37 38  1  0  0  0
 37 39  2  0  0  0
M  CHG  1  38  -1
M  END
> <chembl_id>
CHEMBL3805060

> <chembl_pref_name>
None

> <i_m_ct_stereo_status>
1

> <s_m_source_file>
sdf/inactives_sanitized.sdf

> <i_m_source_file_index>
240

> <i_lp_mmshare_version>
49012

> <i_f3d_flags>
0

> <s_epik_input>
W2NIXTFbY0hdW2NIXVtjSF1bY0hdYzFbQ0gyXU9DKD1PKVtOSF1bQ0BASF0oW0NIMl1jMltjSF1bY0hdW2NIXVtjSF1bY0hdMilDKD1PKVtOSF1bQ0BIXShDI04pW0NIMl1bQ0gyXU9bQ0gyXWMzbm5uKFtjSF0zKVtDSDJdW0NIMl1DKD1PKVtPSF0=

> <s_epik_cmdline>
J2VwaWtfcHl0aG9uJywgJy1waHQnLCAnMC41JywgJy1waCcsICc3LjUnLCAnLW50JywgJy1tYScsICcyMDAnLCAnLWltYWUnLCAnPGluZmlsZS5tYWU+JywgJy1vbWFlJywgJzxvdXRmaWxlLm1hZT4n

> <r_lp_tautomer_probability>
1

> <r_epik_Ionization_Penalty>
  0.0002

> <r_epik_Ionization_Penalty_Charging>
  0.0002

> <r_epik_Ionization_Penalty_Neutral>
  0.0000

> <r_epik_State_Penalty>
 -0.0000

> <r_epik_Charging_Adjusted_Penalty>
0.000162122578488078

> <i_epik_Tot_Q>
-1

> <i_epik_Tot_abs_Q>
1

> <s_epik_Chemistry_Notes>
This compound has an ester and may undergo hydrolysis at high or low pH.

> <s_lp_Force_Field>
OPLS3e

> <r_lp_Energy>
26.597062

> <b_lp_Chiralities_Consistent>
1

> <s_lp_Variant>
sdf/inactives_sanitized.sdf:240-1

$$$$
sdf/inactives_sanitized.sdf:241
                    3D
 Schrodinger Suite 2020-1.
 70 72  0  0  1  0            999 V2000
   -3.2384   -1.7510    0.8942 O   0  0  0  0  0  0
   -2.5571   -0.8497    1.8304 S   0  0  0  0  0  0
   -3.0606    0.5144    2.0211 O   0  0  0  0  0  0
   -2.5012   -1.6851    3.5273 C   0  0  0  0  0  0
   -2.0592   -3.1376    3.4472 C   0  0  0  0  0  0
   -0.7113   -3.4678    3.6094 C   0  0  0  0  0  0
   -0.3070   -4.7974    3.5238 C   0  0  0  0  0  0
   -1.2512   -5.7912    3.2742 C   0  0  0  0  0  0
   -2.5963   -5.4675    3.1077 C   0  0  0  0  0  0
   -3.0012   -4.1380    3.1939 C   0  0  0  0  0  0
   -0.7384   -0.7252    1.3198 C   0  0  0  0  0  0
   -0.5140    0.0452   -0.0005 C   0  0  2  0  0  0
   -1.2711   -0.5462   -1.1082 N   0  0  0  0  0  0
   -1.4270   -0.0246   -2.3427 C   0  0  0  0  0  0
   -1.0220    1.1063   -2.6277 O   0  0  0  0  0  0
   -2.1826   -0.7803   -3.1895 N   0  0  0  0  0  0
   -2.1768   -2.2579   -3.1275 C   0  0  0  0  0  0
   -1.0315   -2.7405   -4.0490 C   0  0  0  0  0  0
   -1.2298   -2.2449   -5.3742 O   0  0  0  0  0  0
   -1.2951   -0.8196   -5.4517 C   0  0  0  0  0  0
   -2.4399   -0.2857   -4.5555 C   0  0  0  0  0  0
    0.9913    0.1440   -0.3284 C   0  0  0  0  0  0
    1.6199   -0.8758   -0.6181 O   0  0  0  0  0  0
    1.5382    1.3696   -0.2450 N   0  0  0  0  0  0
    2.9403    1.6880   -0.5182 C   0  0  1  0  0  0
    3.2646    1.6189   -2.0272 C   0  0  0  0  0  0
    3.3004    3.0560    0.0978 C   0  0  0  0  0  0
    4.7345    3.3285    0.1258 N   0  0  0  0  0  0
    5.2474    4.5125    0.6835 C   0  0  0  0  0  0
    6.6039    4.7798    0.4950 C   0  0  0  0  0  0
    7.1768    5.9326    1.0260 C   0  0  0  0  0  0
    4.4647    5.4164    1.4131 C   0  0  0  0  0  0
    5.0385    6.5690    1.9423 C   0  0  0  0  0  0
    6.3944    6.8399    1.7569 C   0  0  0  0  0  0
    6.8681    8.0099    2.3228 O   0  0  0  0  0  0
    8.2430    8.3741    2.1998 C   0  0  0  0  0  0
    8.4055    9.5306    2.8400 F   0  0  0  0  0  0
    9.0444    7.4777    2.7788 F   0  0  0  0  0  0
    8.5901    8.5670    0.9260 F   0  0  0  0  0  0
   -1.8282   -1.1036    4.1581 H   0  0  0  0  0  0
   -3.5003   -1.6120    3.9580 H   0  0  0  0  0  0
    0.0225   -2.6980    3.7996 H   0  0  0  0  0  0
    0.7339   -5.0569    3.6495 H   0  0  0  0  0  0
   -0.9377   -6.8227    3.2079 H   0  0  0  0  0  0
   -3.3210   -6.2440    2.9118 H   0  0  0  0  0  0
   -4.0435   -3.8868    3.0597 H   0  0  0  0  0  0
   -0.2109   -0.2412    2.1428 H   0  0  0  0  0  0
   -0.3449   -1.7407    1.2572 H   0  0  0  0  0  0
   -0.9144    1.0512    0.1473 H   0  0  0  0  0  0
   -1.6655   -1.4560   -0.9188 H   0  0  0  0  0  0
   -2.1996   -2.6851   -2.1241 H   0  0  0  0  0  0
   -3.1331   -2.5542   -3.5609 H   0  0  0  0  0  0
   -0.0590   -2.4226   -3.6672 H   0  0  0  0  0  0
   -1.0039   -3.8298   -4.0692 H   0  0  0  0  0  0
   -0.3358   -0.3840   -5.1651 H   0  0  0  0  0  0
   -1.4637   -0.5212   -6.4863 H   0  0  0  0  0  0
   -3.3788   -0.7571   -4.8487 H   0  0  0  0  0  0
   -2.6359    0.7858   -4.6169 H   0  0  0  0  0  0
    0.9497    2.1437    0.0272 H   0  0  0  0  0  0
    3.5492    0.9394   -0.0047 H   0  0  0  0  0  0
    4.3026    1.8917   -2.2185 H   0  0  0  0  0  0
    2.6489    2.3137   -2.5998 H   0  0  0  0  0  0
    3.1264    0.6141   -2.4280 H   0  0  0  0  0  0
    2.7977    3.8579   -0.4457 H   0  0  0  0  0  0
    2.9230    3.1162    1.1198 H   0  0  0  0  0  0
    5.2996    2.8792   -0.5806 H   0  0  0  0  0  0
    7.2253    4.0942   -0.0634 H   0  0  0  0  0  0
    8.2293    6.1013    0.8588 H   0  0  0  0  0  0
    3.4119    5.2442    1.5792 H   0  0  0  0  0  0
    4.4239    7.2586    2.5026 H   0  0  0  0  0  0
  1  2  2  0  0  0
  2  3  2  0  0  0
  2  4  1  0  0  0
  2 11  1  0  0  0
  4  5  1  0  0  0
  4 40  1  0  0  0
  4 41  1  0  0  0
  5  6  2  0  0  0
  5 10  1  0  0  0
  6  7  1  0  0  0
  6 42  1  0  0  0
  7  8  2  0  0  0
  7 43  1  0  0  0
  8  9  1  0  0  0
  8 44  1  0  0  0
  9 10  2  0  0  0
  9 45  1  0  0  0
 10 46  1  0  0  0
 11 12  1  0  0  0
 11 47  1  0  0  0
 11 48  1  0  0  0
 12 13  1  0  0  0
 12 22  1  0  0  0
 12 49  1  0  0  0
 13 14  1  0  0  0
 13 50  1  0  0  0
 14 15  2  0  0  0
 14 16  1  0  0  0
 16 17  1  0  0  0
 16 21  1  0  0  0
 17 18  1  0  0  0
 17 51  1  0  0  0
 17 52  1  0  0  0
 18 19  1  0  0  0
 18 53  1  0  0  0
 18 54  1  0  0  0
 19 20  1  0  0  0
 20 21  1  0  0  0
 20 55  1  0  0  0
 20 56  1  0  0  0
 21 57  1  0  0  0
 21 58  1  0  0  0
 22 23  2  0  0  0
 22 24  1  0  0  0
 24 25  1  0  0  0
 24 59  1  0  0  0
 25 26  1  0  0  0
 25 27  1  0  0  0
 25 60  1  0  0  0
 26 61  1  0  0  0
 26 62  1  0  0  0
 26 63  1  0  0  0
 27 28  1  0  0  0
 27 64  1  0  0  0
 27 65  1  0  0  0
 28 29  1  0  0  0
 28 66  1  0  0  0
 29 30  2  0  0  0
 29 32  1  0  0  0
 30 31  1  0  0  0
 30 67  1  0  0  0
 31 34  2  0  0  0
 31 68  1  0  0  0
 32 33  2  0  0  0
 32 69  1  0  0  0
 33 34  1  0  0  0
 33 70  1  0  0  0
 34 35  1  0  0  0
 35 36  1  0  0  0
 36 37  1  0  0  0
 36 38  1  0  0  0
 36 39  1  0  0  0
M  END
> <chembl_id>
CHEMBL212604

> <chembl_pref_name>
None

> <i_m_ct_stereo_status>
1

> <s_m_source_file>
sdf/inactives_sanitized.sdf

> <i_m_source_file_index>
241

> <i_lp_mmshare_version>
49012

> <i_f3d_flags>
0

> <s_epik_input>
W2NIXTFbY0hdW2NIXVtjSF1bY0hdYzFbQ0gyXVMoPU8pKD1PKVtDSDJdW0NASF0oW05IXUMoPU8pTjJbQ0gyXVtDSDJdT1tDSDJdW0NIMl0yKUMoPU8pW05IXVtDQEBIXShbQ0gzXSlbQ0gyXVtOSF1jM1tjSF1bY0hdYyhbY0hdW2NIXTMpT0MoRikoRilG

> <s_epik_cmdline>
J2VwaWtfcHl0aG9uJywgJy1waHQnLCAnMC41JywgJy1waCcsICc3LjUnLCAnLW50JywgJy1tYScsICcyMDAnLCAnLWltYWUnLCAnPGluZmlsZS5tYWU+JywgJy1vbWFlJywgJzxvdXRmaWxlLm1hZT4n

> <r_lp_tautomer_probability>
1

> <r_epik_Ionization_Penalty>
  0.0000

> <r_epik_Ionization_Penalty_Charging>
  0.0000

> <r_epik_Ionization_Penalty_Neutral>
  0.0000

> <r_epik_State_Penalty>
 -0.0000

> <r_epik_Charging_Adjusted_Penalty>
0

> <i_epik_Tot_Q>
0

> <i_epik_Tot_abs_Q>
0

> <s_lp_Force_Field>
OPLS3e

> <r_lp_Energy>
26.093957

> <b_lp_Chiralities_Consistent>
1

> <s_lp_Variant>
sdf/inactives_sanitized.sdf:241-1

$$$$
sdf/inactives_sanitized.sdf:242
                    3D
 Schrodinger Suite 2020-1.
 43 43  0  0  1  0            999 V2000
   -1.7554    3.1878   -0.8115 O   0  0  0  0  0  0
   -1.5833    1.8569   -0.9177 C   0  0  0  0  0  0
   -0.3878    1.5098   -0.2985 N   0  0  0  0  0  0
   -2.3690    1.0859   -1.4752 O   0  0  0  0  0  0
    0.0333    0.1022   -0.1866 C   0  0  2  0  0  0
   -0.7651   -0.6747    0.8883 C   0  0  0  0  0  0
   -0.9984   -1.9718    0.6296 N   0  0  0  0  0  0
   -1.1214   -0.1103    1.9242 O   0  0  0  0  0  0
   -1.7697   -2.8511    1.5026 C   0  0  0  0  0  0
   -3.1850   -2.4547    1.6139 C   0  0  0  0  0  0
   -4.2962   -2.1439    1.7013 N   0  0  0  0  0  0
   -2.9037    3.8229   -1.3656 C   0  0  0  0  0  0
    1.5534    0.0509    0.1291 C   0  0  0  0  0  0
    2.4775    0.6399   -0.9652 C   0  0  0  0  0  0
    2.3478   -0.1054   -2.3110 C   0  0  0  0  0  0
    3.9404    0.7090   -0.4764 C   0  0  0  0  0  0
   -2.9052    5.3110   -1.0437 C   0  0  0  0  0  0
   -4.1052    5.9305   -0.6851 C   0  0  0  0  0  0
   -4.1266    7.2919   -0.3931 C   0  0  0  0  0  0
   -2.9484    8.0318   -0.4647 C   0  0  0  0  0  0
   -1.7490    7.4234   -0.8285 C   0  0  0  0  0  0
   -1.7272    6.0622   -1.1212 C   0  0  0  0  0  0
    0.1378    2.2148    0.1971 H   0  0  0  0  0  0
   -0.1253   -0.3893   -1.1495 H   0  0  0  0  0  0
   -0.6939   -2.3587   -0.2520 H   0  0  0  0  0  0
   -1.7360   -3.8641    1.1022 H   0  0  0  0  0  0
   -1.3321   -2.8870    2.5016 H   0  0  0  0  0  0
   -2.9229    3.6922   -2.4487 H   0  0  0  0  0  0
   -3.8050    3.3605   -0.9589 H   0  0  0  0  0  0
    1.7369    0.5744    1.0700 H   0  0  0  0  0  0
    1.8599   -0.9819    0.3079 H   0  0  0  0  0  0
    2.1677    1.6713   -1.1380 H   0  0  0  0  0  0
    3.3099   -0.2701   -2.7962 H   0  0  0  0  0  0
    1.7361    0.4675   -3.0085 H   0  0  0  0  0  0
    1.8789   -1.0826   -2.1930 H   0  0  0  0  0  0
    4.6020    0.0432   -1.0304 H   0  0  0  0  0  0
    4.0342    0.4376    0.5755 H   0  0  0  0  0  0
    4.3358    1.7196   -0.5819 H   0  0  0  0  0  0
   -5.0212    5.3602   -0.6299 H   0  0  0  0  0  0
   -5.0526    7.7720   -0.1128 H   0  0  0  0  0  0
   -2.9654    9.0876   -0.2373 H   0  0  0  0  0  0
   -0.8405    8.0049   -0.8843 H   0  0  0  0  0  0
   -0.7956    5.5951   -1.4066 H   0  0  0  0  0  0
  1 12  1  0  0  0
  1  2  1  0  0  0
  2  4  2  0  0  0
  2  3  1  0  0  0
  3  5  1  0  0  0
  3 23  1  0  0  0
  5  6  1  0  0  0
  5 13  1  0  0  0
  5 24  1  0  0  0
  6  7  1  0  0  0
  6  8  2  0  0  0
  7  9  1  0  0  0
  7 25  1  0  0  0
  9 10  1  0  0  0
  9 26  1  0  0  0
  9 27  1  0  0  0
 10 11  3  0  0  0
 12 17  1  0  0  0
 12 28  1  0  0  0
 12 29  1  0  0  0
 13 14  1  0  0  0
 13 30  1  0  0  0
 13 31  1  0  0  0
 14 15  1  0  0  0
 14 16  1  0  0  0
 14 32  1  0  0  0
 15 33  1  0  0  0
 15 34  1  0  0  0
 15 35  1  0  0  0
 16 36  1  0  0  0
 16 37  1  0  0  0
 16 38  1  0  0  0
 17 18  2  0  0  0
 17 22  1  0  0  0
 18 19  1  0  0  0
 18 39  1  0  0  0
 19 20  2  0  0  0
 19 40  1  0  0  0
 20 21  1  0  0  0
 20 41  1  0  0  0
 21 22  2  0  0  0
 21 42  1  0  0  0
 22 43  1  0  0  0
M  END
> <chembl_id>
CHEMBL200161

> <chembl_pref_name>
None

> <i_m_ct_stereo_status>
1

> <s_m_source_file>
sdf/inactives_sanitized.sdf

> <i_m_source_file_index>
242

> <i_lp_mmshare_version>
49012

> <i_f3d_flags>
0

> <s_epik_input>
W2NIXTFbY0hdW2NIXVtjSF1bY0hdYzFbQ0gyXU9DKD1PKVtOSF1bQ0BASF0oW0NIMl1bQ0hdKFtDSDNdKVtDSDNdKUMoPU8pW05IXVtDSDJdQyNO

> <s_epik_cmdline>
J2VwaWtfcHl0aG9uJywgJy1waHQnLCAnMC41JywgJy1waCcsICc3LjUnLCAnLW50JywgJy1tYScsICcyMDAnLCAnLWltYWUnLCAnPGluZmlsZS5tYWU+JywgJy1vbWFlJywgJzxvdXRmaWxlLm1hZT4n

> <r_lp_tautomer_probability>
1

> <r_epik_Ionization_Penalty>
  0.0000

> <r_epik_Ionization_Penalty_Charging>
  0.0000

> <r_epik_Ionization_Penalty_Neutral>
  0.0000

> <r_epik_State_Penalty>
 -0.0000

> <r_epik_Charging_Adjusted_Penalty>
0

> <i_epik_Tot_Q>
0

> <i_epik_Tot_abs_Q>
0

> <s_epik_Chemistry_Notes>
This compound has an ester and may undergo hydrolysis at high or low pH.

> <s_lp_Force_Field>
OPLS3e

> <r_lp_Energy>
15.596509

> <b_lp_Chiralities_Consistent>
1

> <s_lp_Variant>
sdf/inactives_sanitized.sdf:242-1

$$$$
sdf/inactives_sanitized.sdf:243
                    3D
 Schrodinger Suite 2020-1.
 86 89  0  0  1  0            999 V2000
    0.2215   -0.1111   -0.1800 N   0  0  0  0  0  0
    1.6882   -0.0906   -0.2074 C   0  0  2  0  0  0
    2.1165   -0.9543   -1.3929 C   0  0  0  0  0  0
    2.9715   -0.5180   -2.1653 O   0  0  0  0  0  0
    1.5760   -2.3061   -1.5943 C   0  0  0  0  0  0
    2.3201   -0.5787    1.1236 C   0  0  0  0  0  0
    3.8545   -0.4337    1.2052 C   0  0  0  0  0  0
    4.4142   -0.8530    2.5561 C   0  0  0  0  0  0
    4.6014    0.1000    3.5608 C   0  0  0  0  0  0
    5.1130   -0.2858    4.7972 C   0  0  0  0  0  0
    5.4336   -1.6226    5.0248 C   0  0  0  0  0  0
    5.2468   -2.5779    4.0277 C   0  0  0  0  0  0
    4.7357   -2.1927    2.7910 C   0  0  0  0  0  0
   -0.5529    0.8286    0.3859 C   0  0  0  0  0  0
   -2.7968    1.2269    1.3835 N   0  0  0  0  0  0
   -2.0692    0.5860    0.2845 C   0  0  1  0  0  0
   -2.6091    1.1263   -1.0601 C   0  0  0  0  0  0
   -0.1230    1.8429    0.9377 O   0  0  0  0  0  0
   -2.8070    0.7998    2.6588 C   0  0  0  0  0  0
   -3.5789    1.6663    3.6770 C   0  0  0  0  0  0
   -2.2324   -0.2280    3.0236 O   0  0  0  0  0  0
   -2.5880    2.1714    4.7518 C   0  0  0  0  0  0
   -3.3427    3.0570    5.7610 C   0  0  0  0  0  0
   -4.5035    2.2511    6.3764 N   0  3  0  0  0  0
   -5.4785    1.6815    5.3272 C   0  0  0  0  0  0
   -4.6962    0.8141    4.3227 C   0  0  0  0  0  0
    1.9681   -2.9651   -2.7305 O   0  0  0  0  0  0
    0.7651   -2.9917   -0.8086 N   0  0  0  0  0  0
    0.6055   -4.1848   -1.4560 C   0  0  0  0  0  0
    1.3461   -4.1711   -2.6417 C   0  0  0  0  0  0
    1.3920   -5.2468   -3.5278 C   0  0  0  0  0  0
    0.6483   -6.3746   -3.1736 C   0  0  0  0  0  0
   -0.1143   -6.4381   -1.9882 C   0  0  0  0  0  0
   -0.1359   -5.3264   -1.1214 C   0  0  0  0  0  0
   -4.0763    0.7463   -1.3674 C   0  0  0  0  0  0
   -4.2762   -0.7810   -1.4820 C   0  0  0  0  0  0
   -4.5920    1.4983   -2.6133 C   0  0  0  0  0  0
   -0.9326   -7.6993   -1.6054 C   0  0  0  0  0  0
   -0.4341   -8.2541   -0.2477 C   0  0  0  0  0  0
   -0.8176   -8.8491   -2.6423 C   0  0  0  0  0  0
   -2.4331   -7.3327   -1.4885 C   0  0  0  0  0  0
   -0.2138   -0.9099   -0.6188 H   0  0  0  0  0  0
    2.0122    0.9368   -0.3954 H   0  0  0  0  0  0
    1.8853   -0.0135    1.9500 H   0  0  0  0  0  0
    2.0348   -1.6108    1.3363 H   0  0  0  0  0  0
    4.3371   -1.0278    0.4275 H   0  0  0  0  0  0
    4.1460    0.5967    0.9947 H   0  0  0  0  0  0
    4.3516    1.1364    3.3858 H   0  0  0  0  0  0
    5.2598    0.4481    5.5759 H   0  0  0  0  0  0
    5.8302   -1.9215    5.9840 H   0  0  0  0  0  0
    5.4968   -3.6122    4.2127 H   0  0  0  0  0  0
    4.5889   -2.9340    2.0187 H   0  0  0  0  0  0
   -3.2853    2.0772    1.1441 H   0  0  0  0  0  0
   -2.2384   -0.4907    0.3408 H   0  0  0  0  0  0
   -2.5068    2.2132   -1.0648 H   0  0  0  0  0  0
   -1.9836    0.7679   -1.8797 H   0  0  0  0  0  0
   -4.0047    2.5042    3.1192 H   0  0  0  0  0  0
   -2.1562    1.3514    5.3300 H   0  0  0  0  0  0
   -1.8118    2.8026    4.3150 H   0  0  0  0  0  0
   -2.7159    3.3680    6.5974 H   0  0  0  0  0  0
   -3.7919    3.9379    5.2998 H   0  0  0  0  0  0
   -4.1208    1.4873    6.9158 H   0  0  0  0  0  0
   -6.2213    1.1107    5.8853 H   0  0  0  0  0  0
   -5.9612    2.5414    4.8602 H   0  0  0  0  0  0
   -5.4233    0.4794    3.5805 H   0  0  0  0  0  0
   -4.2940   -0.0253    4.8942 H   0  0  0  0  0  0
    1.9730   -5.2110   -4.4375 H   0  0  0  0  0  0
    0.6838   -7.2092   -3.8562 H   0  0  0  0  0  0
   -0.7109   -5.3461   -0.2076 H   0  0  0  0  0  0
   -4.6885    1.0895   -0.5324 H   0  0  0  0  0  0
   -4.9029   -1.0629   -2.3278 H   0  0  0  0  0  0
   -4.7597   -1.1731   -0.5867 H   0  0  0  0  0  0
   -3.3297   -1.3096   -1.5982 H   0  0  0  0  0  0
   -4.8072    0.8328   -3.4492 H   0  0  0  0  0  0
   -3.8720    2.2321   -2.9770 H   0  0  0  0  0  0
   -5.5108    2.0392   -2.3849 H   0  0  0  0  0  0
   -0.9791   -9.1535    0.0429 H   0  0  0  0  0  0
   -0.5588   -7.5365    0.5637 H   0  0  0  0  0  0
    0.6241   -8.5163   -0.2897 H   0  0  0  0  0  0
    0.2123   -9.1904   -2.7577 H   0  0  0  0  0  0
   -1.1835   -8.5481   -3.6252 H   0  0  0  0  0  0
   -1.4044   -9.7188   -2.3425 H   0  0  0  0  0  0
   -3.0422   -8.2056   -1.2487 H   0  0  0  0  0  0
   -2.8152   -6.9186   -2.4227 H   0  0  0  0  0  0
   -2.6191   -6.5963   -0.7062 H   0  0  0  0  0  0
   -5.0128    2.8393    7.0211 H   0  0  0  0  0  0
  1  2  1  0  0  0
  1 14  1  0  0  0
  1 42  1  0  0  0
  2  3  1  0  0  0
  2  6  1  0  0  0
  2 43  1  0  0  0
  3  4  2  0  0  0
  3  5  1  0  0  0
  5 27  1  0  0  0
  5 28  2  0  0  0
  6  7  1  0  0  0
  6 44  1  0  0  0
  6 45  1  0  0  0
  7  8  1  0  0  0
  7 46  1  0  0  0
  7 47  1  0  0  0
  8 13  1  0  0  0
  8  9  2  0  0  0
  9 10  1  0  0  0
  9 48  1  0  0  0
 10 11  2  0  0  0
 10 49  1  0  0  0
 11 12  1  0  0  0
 11 50  1  0  0  0
 12 13  2  0  0  0
 12 51  1  0  0  0
 13 52  1  0  0  0
 14 18  2  0  0  0
 14 16  1  0  0  0
 15 16  1  0  0  0
 15 19  1  0  0  0
 15 53  1  0  0  0
 16 17  1  0  0  0
 16 54  1  0  0  0
 17 35  1  0  0  0
 17 55  1  0  0  0
 17 56  1  0  0  0
 19 21  2  0  0  0
 19 20  1  0  0  0
 20 22  1  0  0  0
 20 26  1  0  0  0
 20 57  1  0  0  0
 22 23  1  0  0  0
 22 58  1  0  0  0
 22 59  1  0  0  0
 23 24  1  0  0  0
 23 60  1  0  0  0
 23 61  1  0  0  0
 24 25  1  0  0  0
 24 62  1  0  0  0
 24 86  1  0  0  0
 25 26  1  0  0  0
 25 63  1  0  0  0
 25 64  1  0  0  0
 26 65  1  0  0  0
 26 66  1  0  0  0
 27 30  1  0  0  0
 28 29  1  0  0  0
 29 30  2  0  0  0
 29 34  1  0  0  0
 30 31  1  0  0  0
 31 32  2  0  0  0
 31 67  1  0  0  0
 32 33  1  0  0  0
 32 68  1  0  0  0
 33 34  2  0  0  0
 33 38  1  0  0  0
 34 69  1  0  0  0
 35 36  1  0  0  0
 35 37  1  0  0  0
 35 70  1  0  0  0
 36 71  1  0  0  0
 36 72  1  0  0  0
 36 73  1  0  0  0
 37 74  1  0  0  0
 37 75  1  0  0  0
 37 76  1  0  0  0
 38 39  1  0  0  0
 38 40  1  0  0  0
 38 41  1  0  0  0
 39 77  1  0  0  0
 39 78  1  0  0  0
 39 79  1  0  0  0
 40 80  1  0  0  0
 40 81  1  0  0  0
 40 82  1  0  0  0
 41 83  1  0  0  0
 41 84  1  0  0  0
 41 85  1  0  0  0
M  CHG  1  24   1
M  END
> <chembl_id>
CHEMBL257692

> <chembl_pref_name>
None

> <i_m_ct_stereo_status>
1

> <s_m_source_file>
sdf/inactives_sanitized.sdf

> <i_m_source_file_index>
243

> <i_lp_mmshare_version>
49012

> <i_f3d_flags>
0

> <s_epik_input>
W0NIM11DKFtDSDNdKShbQ0gzXSljKFtjSF0xKVtjSF1bY0hdYyhjMTIpb2MobjIpQyg9TylbQ0BIXShbQ0gyXVtDSDJdYzNbY0hdW2NIXVtjSF1bY0hdW2NIXTMpW05IXUMoPU8pW0NASF0oW0NIMl1bQ0hdKFtDSDNdKVtDSDNdKVtOSF1DKD1PKVtDSF00W0NIMl1bQ0gyXVtOSF1bQ0gyXVtDSDJdNA==

> <s_epik_cmdline>
J2VwaWtfcHl0aG9uJywgJy1waHQnLCAnMC41JywgJy1waCcsICc3LjUnLCAnLW50JywgJy1tYScsICcyMDAnLCAnLWltYWUnLCAnPGluZmlsZS5tYWU+JywgJy1vbWFlJywgJzxvdXRmaWxlLm1hZT4n

> <r_lp_tautomer_probability>
1

> <r_epik_Ionization_Penalty>
  0.0038

> <r_epik_Ionization_Penalty_Charging>
  0.0038

> <r_epik_Ionization_Penalty_Neutral>
  0.0000

> <r_epik_State_Penalty>
 -0.0000

> <r_epik_Charging_Adjusted_Penalty>
0.0037671461924843

> <i_epik_Tot_Q>
1

> <i_epik_Tot_abs_Q>
1

> <s_lp_Force_Field>
OPLS3e

> <r_lp_Energy>
60.659859

> <b_lp_Chiralities_Consistent>
1

> <s_lp_Variant>
sdf/inactives_sanitized.sdf:243-1

$$$$
sdf/inactives_sanitized.sdf:244
                    3D
 Schrodinger Suite 2020-1.
 51 53  0  0  1  0            999 V2000
   -2.4179    0.5762    0.3608 C   0  0  0  0  0  0
   -0.9162    0.8902    0.2924 C   0  0  0  0  0  0
   -0.5005    2.0456    0.3918 O   0  0  0  0  0  0
   -0.1048   -0.1682    0.1144 N   0  0  0  0  0  0
    1.3636   -0.1212    0.0366 C   0  0  2  0  0  0
    1.7114   -0.8011   -1.2871 C   0  0  0  0  0  0
    2.3342   -1.8652   -1.3136 O   0  0  0  0  0  0
    1.3211   -0.1528   -2.5405 C   0  0  0  0  0  0
    1.4702   -0.5796   -3.7737 N   0  0  0  0  0  0
    0.9179    0.3986   -4.5975 N   0  0  0  0  0  0
    0.4787    1.3374   -3.7965 C   0  0  0  0  0  0
    0.7099    1.0591   -2.4900 O   0  0  0  0  0  0
    2.0475   -0.7729    1.2685 C   0  0  0  0  0  0
    1.7580   -0.0389    2.5938 C   0  0  0  0  0  0
    2.4875   -0.6630    3.7960 C   0  0  0  0  0  0
   -0.1965    2.5667   -4.1494 C   0  0  0  0  0  0
   -0.5308    3.1654   -5.3576 C   0  0  0  0  0  0
   -1.1896    4.3579   -5.0545 C   0  0  0  0  0  0
   -1.2334    4.4359   -3.6734 C   0  0  0  0  0  0
   -0.6312    3.3501   -3.1251 O   0  0  0  0  0  0
    2.2071    0.0737    5.1127 C   0  0  0  0  0  0
   -3.3310    1.8194    0.4495 C   0  0  0  0  0  0
   -4.8086    1.4557    0.4525 C   0  0  0  0  0  0
   -5.4529    1.1617    1.6575 C   0  0  0  0  0  0
   -6.8047    0.8272    1.6590 C   0  0  0  0  0  0
   -7.5067    0.7871    0.4561 C   0  0  0  0  0  0
   -6.8697    1.0770   -0.7487 C   0  0  0  0  0  0
   -5.5179    1.4108   -0.7510 C   0  0  0  0  0  0
   -2.6884   -0.0083   -0.5205 H   0  0  0  0  0  0
   -2.5977   -0.0692    1.2222 H   0  0  0  0  0  0
   -0.5099   -1.0932    0.0958 H   0  0  0  0  0  0
    1.7179    0.9108   -0.0222 H   0  0  0  0  0  0
    1.7227   -1.8109    1.3662 H   0  0  0  0  0  0
    3.1279   -0.7952    1.1128 H   0  0  0  0  0  0
    0.6848   -0.0425    2.7895 H   0  0  0  0  0  0
    2.0506    1.0081    2.4984 H   0  0  0  0  0  0
    2.1915   -1.7076    3.9018 H   0  0  0  0  0  0
    3.5629   -0.6672    3.6117 H   0  0  0  0  0  0
   -0.3202    2.7797   -6.3445 H   0  0  0  0  0  0
   -1.5874    5.0754   -5.7569 H   0  0  0  0  0  0
   -1.6358    5.1602   -2.9804 H   0  0  0  0  0  0
    2.7386   -0.3944    5.9416 H   0  0  0  0  0  0
    1.1436    0.0629    5.3539 H   0  0  0  0  0  0
    2.5284    1.1144    5.0599 H   0  0  0  0  0  0
   -3.1112    2.3908    1.3537 H   0  0  0  0  0  0
   -3.1377    2.4989   -0.3834 H   0  0  0  0  0  0
   -4.9089    1.1910    2.5906 H   0  0  0  0  0  0
   -7.3067    0.5995    2.5878 H   0  0  0  0  0  0
   -8.5553    0.5281    0.4575 H   0  0  0  0  0  0
   -7.4216    1.0427   -1.6765 H   0  0  0  0  0  0
   -5.0244    1.6334   -1.6860 H   0  0  0  0  0  0
  1  2  1  0  0  0
  1 22  1  0  0  0
  1 29  1  0  0  0
  1 30  1  0  0  0
  2  3  2  0  0  0
  2  4  1  0  0  0
  4  5  1  0  0  0
  4 31  1  0  0  0
  5  6  1  0  0  0
  5 13  1  0  0  0
  5 32  1  0  0  0
  6  8  1  0  0  0
  6  7  2  0  0  0
  8 12  1  0  0  0
  8  9  2  0  0  0
  9 10  1  0  0  0
 10 11  2  0  0  0
 11 16  1  0  0  0
 11 12  1  0  0  0
 13 14  1  0  0  0
 13 33  1  0  0  0
 13 34  1  0  0  0
 14 15  1  0  0  0
 14 35  1  0  0  0
 14 36  1  0  0  0
 15 21  1  0  0  0
 15 37  1  0  0  0
 15 38  1  0  0  0
 16 17  2  0  0  0
 16 20  1  0  0  0
 17 18  1  0  0  0
 17 39  1  0  0  0
 18 19  2  0  0  0
 18 40  1  0  0  0
 19 20  1  0  0  0
 19 41  1  0  0  0
 21 42  1  0  0  0
 21 43  1  0  0  0
 21 44  1  0  0  0
 22 23  1  0  0  0
 22 45  1  0  0  0
 22 46  1  0  0  0
 23 24  2  0  0  0
 23 28  1  0  0  0
 24 25  1  0  0  0
 24 47  1  0  0  0
 25 26  2  0  0  0
 25 48  1  0  0  0
 26 27  1  0  0  0
 26 49  1  0  0  0
 27 28  2  0  0  0
 27 50  1  0  0  0
 28 51  1  0  0  0
M  END
> <chembl_id>
CHEMBL272375

> <chembl_pref_name>
None

> <i_m_ct_stereo_status>
1

> <s_m_source_file>
sdf/inactives_sanitized.sdf

> <i_m_source_file_index>
244

> <i_lp_mmshare_version>
49012

> <i_f3d_flags>
0

> <s_epik_input>
W2NIXTFbY0hdW2NIXVtjSF1bY0hdYzFbQ0gyXVtDSDJdQyg9TylbTkhdW0NAQEhdKFtDSDJdW0NIMl1bQ0gyXVtDSDNdKUMoPU8pYzJubmMobzIpLWMzW2NIXVtjSF1bY0hdbzM=

> <s_epik_cmdline>
J2VwaWtfcHl0aG9uJywgJy1waHQnLCAnMC41JywgJy1waCcsICc3LjUnLCAnLW50JywgJy1tYScsICcyMDAnLCAnLWltYWUnLCAnPGluZmlsZS5tYWU+JywgJy1vbWFlJywgJzxvdXRmaWxlLm1hZT4n

> <r_lp_tautomer_probability>
1

> <r_epik_Ionization_Penalty>
  0.0000

> <r_epik_Ionization_Penalty_Charging>
  0.0000

> <r_epik_Ionization_Penalty_Neutral>
  0.0000

> <r_epik_State_Penalty>
 -0.0000

> <r_epik_Charging_Adjusted_Penalty>
0

> <i_epik_Tot_Q>
0

> <i_epik_Tot_abs_Q>
0

> <s_lp_Force_Field>
OPLS3e

> <r_lp_Energy>
29.744371

> <b_lp_Chiralities_Consistent>
1

> <s_lp_Variant>
sdf/inactives_sanitized.sdf:244-1

$$$$
sdf/inactives_sanitized.sdf:245
                    3D
 Schrodinger Suite 2020-1.
 69 72  0  0  1  0            999 V2000
   -4.0874    3.6841    0.4041 N   0  0  0  0  0  0
   -3.5242    3.6921   -0.8431 C   0  0  0  0  0  0
   -2.0516    3.2278   -0.8523 C   0  0  0  0  0  0
   -1.8630    1.9647    0.0216 C   0  0  2  0  0  0
   -2.3092    2.2274    1.4770 C   0  0  0  0  0  0
   -0.1652    0.1190    0.0403 C   0  0  0  0  0  0
   -0.5015    1.4208   -0.0219 N   0  0  0  0  0  0
    1.9838   -0.2038    2.4951 C   0  0  0  0  0  0
   -3.3247    3.3750    1.6402 C   0  0  0  0  0  0
    1.3504   -0.1826    0.0409 C   0  0  1  0  0  0
    1.7727   -0.8643    1.2799 N   0  0  0  0  0  0
   -5.4948    4.0759    0.5674 C   0  0  0  0  0  0
   -4.1115    4.0197   -1.8754 O   0  0  0  0  0  0
   -1.8640    1.6208    2.4518 O   0  0  0  0  0  0
   -0.9745   -0.8086    0.0852 O   0  0  0  0  0  0
    1.8286   -0.9990   -1.1858 C   0  0  0  0  0  0
    2.3732   -0.7624    3.5207 O   0  0  0  0  0  0
    1.6807    1.1154    2.4165 O   0  0  0  0  0  0
   -6.5072    2.9691    0.1966 C   0  0  0  0  0  0
    1.6985    1.9609    3.5600 C   0  0  0  0  0  0
    1.5759   -0.3525   -2.5400 C   0  0  0  0  0  0
   -6.2559    1.6518    0.9205 C   0  0  0  0  0  0
    0.9698    3.2634    3.2559 C   0  0  0  0  0  0
    0.3951   -0.6362   -3.2598 C   0  0  0  0  0  0
    2.4320    0.6680   -3.0055 C   0  0  0  0  0  0
   -5.5324    0.6363    0.2883 C   0  0  0  0  0  0
   -6.7161    1.4753    2.2278 C   0  0  0  0  0  0
    0.1148    3.8086    4.2168 C   0  0  0  0  0  0
    1.1452    3.9128    2.0284 C   0  0  0  0  0  0
    2.1413    1.3326   -4.1898 C   0  0  0  0  0  0
   -6.4481    0.2875    2.9034 C   0  0  0  0  0  0
   -5.2608   -0.5491    0.9656 C   0  0  0  0  0  0
   -0.5711    4.9905    3.9492 C   0  0  0  0  0  0
    0.4583    5.0936    1.7605 C   0  0  0  0  0  0
    0.1223    0.0392   -4.4421 C   0  0  0  0  0  0
   -0.3964    5.6273    2.7223 C   0  0  0  0  0  0
   -5.7199   -0.7178    2.2702 C   0  0  0  0  0  0
    0.9945    1.0154   -4.9073 C   0  0  0  0  0  0
   -1.7670    3.0145   -1.8840 H   0  0  0  0  0  0
   -1.4217    4.0523   -0.5138 H   0  0  0  0  0  0
   -2.5384    1.1926   -0.3571 H   0  0  0  0  0  0
    0.2431    2.1016   -0.0632 H   0  0  0  0  0  0
   -3.9878    3.1916    2.4865 H   0  0  0  0  0  0
   -2.7475    4.2625    1.8987 H   0  0  0  0  0  0
    1.8932    0.7643   -0.0281 H   0  0  0  0  0  0
    1.9041   -1.8647    1.2430 H   0  0  0  0  0  0
   -5.6811    4.4213    1.5852 H   0  0  0  0  0  0
   -5.7035    4.9600   -0.0378 H   0  0  0  0  0  0
    2.9012   -1.1817   -1.1010 H   0  0  0  0  0  0
    1.3677   -1.9887   -1.1805 H   0  0  0  0  0  0
   -7.5191    3.3145    0.4130 H   0  0  0  0  0  0
   -6.5078    2.8086   -0.8828 H   0  0  0  0  0  0
    1.2096    1.4607    4.3985 H   0  0  0  0  0  0
    2.7269    2.1757    3.8529 H   0  0  0  0  0  0
   -0.3006   -1.3769   -2.8928 H   0  0  0  0  0  0
    3.3140    0.9363   -2.4425 H   0  0  0  0  0  0
   -5.1654    0.7715   -0.7190 H   0  0  0  0  0  0
   -7.2702    2.2593    2.7231 H   0  0  0  0  0  0
   -0.0267    3.3144    5.1672 H   0  0  0  0  0  0
    1.8063    3.5017    1.2793 H   0  0  0  0  0  0
    2.8040    2.1057   -4.5496 H   0  0  0  0  0  0
   -6.7982    0.1488    3.9157 H   0  0  0  0  0  0
   -4.6923   -1.3314    0.4840 H   0  0  0  0  0  0
   -1.2372    5.4101    4.6887 H   0  0  0  0  0  0
    0.5869    5.5929    0.8115 H   0  0  0  0  0  0
   -0.7760   -0.1888   -4.9968 H   0  0  0  0  0  0
   -0.9302    6.5428    2.5143 H   0  0  0  0  0  0
   -5.5073   -1.6368    2.7964 H   0  0  0  0  0  0
    0.7735    1.5393   -5.8256 H   0  0  0  0  0  0
  1  2  1  0  0  0
  1  9  1  0  0  0
  1 12  1  0  0  0
  2  3  1  0  0  0
  2 13  2  0  0  0
  3  4  1  0  0  0
  3 39  1  0  0  0
  3 40  1  0  0  0
  4  5  1  0  0  0
  4  7  1  0  0  0
  4 41  1  0  0  0
  5  9  1  0  0  0
  5 14  2  0  0  0
  6  7  1  0  0  0
  6 10  1  0  0  0
  6 15  2  0  0  0
  7 42  1  0  0  0
  8 11  1  0  0  0
  8 17  2  0  0  0
  8 18  1  0  0  0
  9 43  1  0  0  0
  9 44  1  0  0  0
 10 11  1  0  0  0
 10 16  1  0  0  0
 10 45  1  0  0  0
 11 46  1  0  0  0
 12 19  1  0  0  0
 12 47  1  0  0  0
 12 48  1  0  0  0
 16 21  1  0  0  0
 16 49  1  0  0  0
 16 50  1  0  0  0
 18 20  1  0  0  0
 19 22  1  0  0  0
 19 51  1  0  0  0
 19 52  1  0  0  0
 20 23  1  0  0  0
 20 53  1  0  0  0
 20 54  1  0  0  0
 21 24  2  0  0  0
 21 25  1  0  0  0
 22 26  2  0  0  0
 22 27  1  0  0  0
 23 28  2  0  0  0
 23 29  1  0  0  0
 24 35  1  0  0  0
 24 55  1  0  0  0
 25 30  2  0  0  0
 25 56  1  0  0  0
 26 32  1  0  0  0
 26 57  1  0  0  0
 27 31  2  0  0  0
 27 58  1  0  0  0
 28 33  1  0  0  0
 28 59  1  0  0  0
 29 34  2  0  0  0
 29 60  1  0  0  0
 30 38  1  0  0  0
 30 61  1  0  0  0
 31 37  1  0  0  0
 31 62  1  0  0  0
 32 37  2  0  0  0
 32 63  1  0  0  0
 33 36  2  0  0  0
 33 64  1  0  0  0
 34 36  1  0  0  0
 34 65  1  0  0  0
 35 38  2  0  0  0
 35 66  1  0  0  0
 36 67  1  0  0  0
 37 68  1  0  0  0
 38 69  1  0  0  0
M  END
> <chembl_id>
CHEMBL100702

> <chembl_pref_name>
None

> <i_m_ct_stereo_status>
1

> <s_m_source_file>
sdf/inactives_sanitized.sdf

> <i_m_source_file_index>
245

> <i_lp_mmshare_version>
49012

> <i_f3d_flags>
0

> <s_epik_input>
W2NIXTFbY0hdW2NIXVtjSF1bY0hdYzFbQ0gyXVtDSDJdTjJDKD1PKVtDSDJdW0NASF0oQyg9TylbQ0gyXTIpW05IXUMoPU8pW0NASF0oW0NIMl1jM1tjSF1bY0hdW2NIXVtjSF1bY0hdMylbTkhdQyg9TylPW0NIMl1jNFtjSF1bY0hdW2NIXVtjSF1bY0hdNA==

> <s_epik_cmdline>
J2VwaWtfcHl0aG9uJywgJy1waHQnLCAnMC41JywgJy1waCcsICc3LjUnLCAnLW50JywgJy1tYScsICcyMDAnLCAnLWltYWUnLCAnPGluZmlsZS5tYWU+JywgJy1vbWFlJywgJzxvdXRmaWxlLm1hZT4n

> <r_lp_tautomer_probability>
1

> <r_epik_Ionization_Penalty>
  0.0000

> <r_epik_Ionization_Penalty_Charging>
  0.0000

> <r_epik_Ionization_Penalty_Neutral>
  0.0000

> <r_epik_State_Penalty>
 -0.0000

> <r_epik_Charging_Adjusted_Penalty>
0

> <i_epik_Tot_Q>
0

> <i_epik_Tot_abs_Q>
0

> <s_epik_Chemistry_Notes>
This compound has an ester and may undergo hydrolysis at high or low pH.

> <s_lp_Force_Field>
OPLS3e

> <r_lp_Energy>
50.638352

> <b_lp_Chiralities_Consistent>
1

> <s_lp_Variant>
sdf/inactives_sanitized.sdf:245-1

$$$$
sdf/inactives_sanitized.sdf:246
                    3D
 Schrodinger Suite 2020-1.
 51 53  0  0  1  0            999 V2000
   -6.6024   -0.2722   -0.1011 C   0  0  0  0  0  0
   -7.0728   -1.4518    0.2678 N   0  0  0  0  0  0
   -8.3646   -1.2577    0.2680 C   0  0  0  0  0  0
   -8.7186    0.0009   -0.0874 O   0  0  0  0  0  0
   -7.5134    0.6537   -0.3341 N   0  0  0  0  0  0
   -9.4123   -2.2103    0.5961 C   0  0  0  0  0  0
   -9.0405   -3.8534    1.0449 S   0  0  0  0  0  0
  -10.7224   -4.2220    1.2409 C   0  0  0  0  0  0
  -11.5272   -3.1265    0.9715 C   0  0  0  0  0  0
  -10.7893   -1.9950    0.6091 C   0  0  0  0  0  0
   -4.1857   -0.9761    0.1134 C   0  0  0  0  0  0
   -5.1276   -0.0029   -0.2434 C   0  0  0  0  0  0
   -4.6696    1.2258   -0.7352 C   0  0  0  0  0  0
   -3.3066    1.4767   -0.8641 C   0  0  0  0  0  0
   -2.3643    0.5059   -0.5019 C   0  0  0  0  0  0
   -2.8220   -0.7274   -0.0142 C   0  0  0  0  0  0
   -0.8868    0.8020   -0.6511 C   0  0  0  0  0  0
   -0.0429    0.0064    0.0360 N   0  0  0  0  0  0
   -0.4988    1.7423   -1.3483 O   0  0  0  0  0  0
    1.4229    0.1065    0.0403 C   0  0  2  0  0  0
    2.0442   -0.2970   -1.3166 C   0  0  0  0  0  0
    1.9990   -0.7629    1.1902 C   0  0  0  0  0  0
    1.5445   -1.2050   -1.9838 O   0  0  0  0  0  0
    3.1539    0.3679   -1.6780 N   0  0  0  0  0  0
    3.8557    0.1589   -2.9406 C   0  0  0  0  0  0
    3.0561    0.5534   -4.1143 C   0  0  0  0  0  0
    2.4289    0.8634   -5.0359 N   0  0  0  0  0  0
    1.5886   -0.3248    2.6172 C   0  0  0  0  0  0
    2.0615    1.1059    2.9538 C   0  0  0  0  0  0
    2.0525   -1.3552    3.6694 C   0  0  0  0  0  0
  -11.0329   -5.2121    1.5403 H   0  0  0  0  0  0
  -12.6053   -3.1444    1.0348 H   0  0  0  0  0  0
  -11.2451   -1.0468    0.3636 H   0  0  0  0  0  0
   -4.5027   -1.9362    0.4941 H   0  0  0  0  0  0
   -5.3666    1.9991   -1.0236 H   0  0  0  0  0  0
   -2.9934    2.4379   -1.2470 H   0  0  0  0  0  0
   -2.1327   -1.5100    0.2682 H   0  0  0  0  0  0
   -0.4273   -0.7448    0.5893 H   0  0  0  0  0  0
    1.6800    1.1523    0.2208 H   0  0  0  0  0  0
    1.6975   -1.8011    1.0334 H   0  0  0  0  0  0
    3.0898   -0.7676    1.1398 H   0  0  0  0  0  0
    3.4929    1.1138   -1.0877 H   0  0  0  0  0  0
    4.7678    0.7556   -2.9402 H   0  0  0  0  0  0
    4.1557   -0.8844   -3.0508 H   0  0  0  0  0  0
    0.4986   -0.3208    2.6590 H   0  0  0  0  0  0
    2.4765    1.1874    3.9583 H   0  0  0  0  0  0
    1.2287    1.8078    2.8977 H   0  0  0  0  0  0
    2.8288    1.4560    2.2629 H   0  0  0  0  0  0
    2.4601   -2.2560    3.2097 H   0  0  0  0  0  0
    1.2185   -1.6668    4.2988 H   0  0  0  0  0  0
    2.8267   -0.9641    4.3293 H   0  0  0  0  0  0
  1  5  2  0  0  0
  1 12  1  0  0  0
  1  2  1  0  0  0
  2  3  2  0  0  0
  3  4  1  0  0  0
  3  6  1  0  0  0
  4  5  1  0  0  0
  6 10  2  0  0  0
  6  7  1  0  0  0
  7  8  1  0  0  0
  8  9  2  0  0  0
  8 31  1  0  0  0
  9 10  1  0  0  0
  9 32  1  0  0  0
 10 33  1  0  0  0
 11 16  2  0  0  0
 11 12  1  0  0  0
 11 34  1  0  0  0
 12 13  2  0  0  0
 13 14  1  0  0  0
 13 35  1  0  0  0
 14 15  2  0  0  0
 14 36  1  0  0  0
 15 16  1  0  0  0
 15 17  1  0  0  0
 16 37  1  0  0  0
 17 18  1  0  0  0
 17 19  2  0  0  0
 18 20  1  0  0  0
 18 38  1  0  0  0
 20 21  1  0  0  0
 20 22  1  0  0  0
 20 39  1  0  0  0
 21 23  2  0  0  0
 21 24  1  0  0  0
 22 28  1  0  0  0
 22 40  1  0  0  0
 22 41  1  0  0  0
 24 25  1  0  0  0
 24 42  1  0  0  0
 25 26  1  0  0  0
 25 43  1  0  0  0
 25 44  1  0  0  0
 26 27  3  0  0  0
 28 29  1  0  0  0
 28 30  1  0  0  0
 28 45  1  0  0  0
 29 46  1  0  0  0
 29 47  1  0  0  0
 29 48  1  0  0  0
 30 49  1  0  0  0
 30 50  1  0  0  0
 30 51  1  0  0  0
M  END
> <chembl_id>
CHEMBL1651359

> <chembl_pref_name>
None

> <i_m_ct_stereo_status>
1

> <s_m_source_file>
sdf/inactives_sanitized.sdf

> <i_m_source_file_index>
246

> <i_lp_mmshare_version>
49012

> <i_f3d_flags>
0

> <s_epik_input>
W2NIXTFbY0hdW2NIXXNjMS1jKG9uMiluYzItYzNbY0hdW2NIXWMoW2NIXVtjSF0zKUMoPU8pW05IXVtDQEBIXShbQ0gyXVtDSF0oW0NIM10pW0NIM10pQyg9TylbTkhdW0NIMl1DI04=

> <s_epik_cmdline>
J2VwaWtfcHl0aG9uJywgJy1waHQnLCAnMC41JywgJy1waCcsICc3LjUnLCAnLW50JywgJy1tYScsICcyMDAnLCAnLWltYWUnLCAnPGluZmlsZS5tYWU+JywgJy1vbWFlJywgJzxvdXRmaWxlLm1hZT4n

> <r_lp_tautomer_probability>
1

> <r_epik_Ionization_Penalty>
  0.0000

> <r_epik_Ionization_Penalty_Charging>
  0.0000

> <r_epik_Ionization_Penalty_Neutral>
  0.0000

> <r_epik_State_Penalty>
 -0.0000

> <r_epik_Charging_Adjusted_Penalty>
0

> <i_epik_Tot_Q>
0

> <i_epik_Tot_abs_Q>
0

> <s_lp_Force_Field>
OPLS3e

> <r_lp_Energy>
17.189844

> <b_lp_Chiralities_Consistent>
1

> <s_lp_Variant>
sdf/inactives_sanitized.sdf:246-1

$$$$
sdf/inactives_sanitized.sdf:247
                    3D
 Schrodinger Suite 2020-1.
 78 81  0  0  1  0            999 V2000
    3.8724   -0.4684   -0.7425 C   0  0  1  0  0  0
    4.5427    0.1364   -1.9610 C   0  0  1  0  0  0
    4.3382    0.9910   -0.7295 C   0  0  0  0  0  0
    2.3535   -0.6844   -0.8242 C   0  0  0  0  0  0
   -0.3921    1.4087    0.0112 C   0  0  0  0  0  0
    0.1216   -0.0262    0.0965 C   0  0  1  0  0  0
    4.5984   -1.4744    0.0374 N   0  0  0  0  0  0
    1.5833    0.0751   -0.0240 N   0  0  0  0  0  0
   -0.2659    2.1108   -1.4105 C   0  0  0  0  0  0
    4.7896   -1.3732    1.4078 C   0  0  0  0  0  0
   -0.9184    2.0028    0.9576 O   0  0  0  0  0  0
    1.9021   -1.5464   -1.5783 O   0  0  0  0  0  0
   -0.2625   -0.7338    1.4258 C   0  0  0  0  0  0
    4.4590   -0.4223    2.1212 O   0  0  0  0  0  0
    0.1506    1.5021   -2.3977 O   0  0  0  0  0  0
    5.3776   -2.5004    1.8493 O   0  0  0  0  0  0
    5.9916   -0.2126   -2.3694 C   0  0  0  0  0  0
   -0.6570    3.3987   -1.3874 N   0  0  0  0  0  0
    5.6480   -2.6880    3.2334 C   0  0  0  0  0  0
    0.2039   -2.1767    1.5423 C   0  0  0  0  0  0
   -0.6496    4.2847   -2.5485 C   0  0  0  0  0  0
    6.1303   -4.1082    3.4671 C   0  0  0  0  0  0
   -1.8366    5.0377   -4.6784 C   0  0  0  0  0  0
   -1.7913    4.0188   -3.5494 C   0  0  0  0  0  0
    6.6358    0.9418   -3.1564 C   0  0  0  0  0  0
    6.0320   -1.5232   -3.1741 C   0  0  0  0  0  0
   -0.4959   -3.2051    0.8764 C   0  0  0  0  0  0
    1.4328   -2.4799    2.1669 C   0  0  0  0  0  0
    7.3927   -4.4980    3.0122 C   0  0  0  0  0  0
    5.3106   -5.0214    4.1348 C   0  0  0  0  0  0
   -2.6044    6.1973   -4.5415 C   0  0  0  0  0  0
   -1.1074    4.8133   -5.8494 C   0  0  0  0  0  0
    5.7513   -6.3260    4.3427 C   0  0  0  0  0  0
    7.8328   -5.8026    3.2208 C   0  0  0  0  0  0
    1.9113   -3.7831    2.1670 C   0  0  0  0  0  0
   -0.0026   -4.5034    0.8910 C   0  0  0  0  0  0
   -1.1484    5.7459   -6.8827 C   0  0  0  0  0  0
   -2.6451    7.1295   -5.5751 C   0  0  0  0  0  0
    7.0097   -6.7106    3.8841 C   0  0  0  0  0  0
   -1.9173    6.8994   -6.7409 C   0  0  0  0  0  0
    1.1939   -4.7913    1.5360 C   0  0  0  0  0  0
    3.9186    0.3619   -2.8287 H   0  0  0  0  0  0
    3.6475    1.8226   -0.8765 H   0  0  0  0  0  0
    5.2033    1.2749   -0.1290 H   0  0  0  0  0  0
   -0.3063   -0.6083   -0.7235 H   0  0  0  0  0  0
    4.8719   -2.3298   -0.4237 H   0  0  0  0  0  0
    2.0323    0.7126    0.6176 H   0  0  0  0  0  0
    0.1370   -0.1843    2.2807 H   0  0  0  0  0  0
   -1.3475   -0.7286    1.5429 H   0  0  0  0  0  0
    6.5905   -0.3630   -1.4694 H   0  0  0  0  0  0
   -0.9807    3.7933   -0.5157 H   0  0  0  0  0  0
    6.4124   -1.9857    3.5698 H   0  0  0  0  0  0
    4.7531   -2.4981    3.8297 H   0  0  0  0  0  0
   -0.7277    5.3116   -2.1893 H   0  0  0  0  0  0
    0.3160    4.2770   -3.0585 H   0  0  0  0  0  0
   -2.7520    4.0145   -3.0315 H   0  0  0  0  0  0
   -1.6958    3.0182   -3.9745 H   0  0  0  0  0  0
    6.0971    1.1439   -4.0831 H   0  0  0  0  0  0
    7.6699    0.7142   -3.4173 H   0  0  0  0  0  0
    6.6438    1.8619   -2.5711 H   0  0  0  0  0  0
    5.4641   -1.4401   -4.1015 H   0  0  0  0  0  0
    5.6098   -2.3506   -2.6024 H   0  0  0  0  0  0
    7.0551   -1.7969   -3.4341 H   0  0  0  0  0  0
   -1.4133   -2.9857    0.3499 H   0  0  0  0  0  0
    2.0083   -1.6986    2.6408 H   0  0  0  0  0  0
    8.0287   -3.7935    2.4960 H   0  0  0  0  0  0
    4.3343   -4.7256    4.4904 H   0  0  0  0  0  0
   -3.1680    6.3770   -3.6374 H   0  0  0  0  0  0
   -0.5100    3.9195   -5.9591 H   0  0  0  0  0  0
    5.1200   -7.0360    4.8562 H   0  0  0  0  0  0
    8.8069   -6.1093    2.8690 H   0  0  0  0  0  0
    2.8501   -4.0108    2.6488 H   0  0  0  0  0  0
   -0.5451   -5.2904    0.3881 H   0  0  0  0  0  0
   -0.5872    5.5760   -7.7898 H   0  0  0  0  0  0
   -3.2379    8.0265   -5.4731 H   0  0  0  0  0  0
    7.3511   -7.7227    4.0450 H   0  0  0  0  0  0
   -1.9493    7.6226   -7.5425 H   0  0  0  0  0  0
    1.5750   -5.8020    1.5360 H   0  0  0  0  0  0
  1  2  1  0  0  0
  1  3  1  0  0  0
  1  4  1  0  0  0
  1  7  1  0  0  0
  2 17  1  0  0  0
  2  3  1  0  0  0
  2 42  1  0  0  0
  3 43  1  0  0  0
  3 44  1  0  0  0
  4  8  1  0  0  0
  4 12  2  0  0  0
  5  6  1  0  0  0
  5  9  1  0  0  0
  5 11  2  0  0  0
  6  8  1  0  0  0
  6 13  1  0  0  0
  6 45  1  0  0  0
  7 10  1  0  0  0
  7 46  1  0  0  0
  8 47  1  0  0  0
  9 15  2  0  0  0
  9 18  1  0  0  0
 10 14  2  0  0  0
 10 16  1  0  0  0
 13 20  1  0  0  0
 13 48  1  0  0  0
 13 49  1  0  0  0
 16 19  1  0  0  0
 17 25  1  0  0  0
 17 26  1  0  0  0
 17 50  1  0  0  0
 18 21  1  0  0  0
 18 51  1  0  0  0
 19 22  1  0  0  0
 19 52  1  0  0  0
 19 53  1  0  0  0
 20 27  2  0  0  0
 20 28  1  0  0  0
 21 24  1  0  0  0
 21 54  1  0  0  0
 21 55  1  0  0  0
 22 29  2  0  0  0
 22 30  1  0  0  0
 23 24  1  0  0  0
 23 31  2  0  0  0
 23 32  1  0  0  0
 24 56  1  0  0  0
 24 57  1  0  0  0
 25 58  1  0  0  0
 25 59  1  0  0  0
 25 60  1  0  0  0
 26 61  1  0  0  0
 26 62  1  0  0  0
 26 63  1  0  0  0
 27 36  1  0  0  0
 27 64  1  0  0  0
 28 35  2  0  0  0
 28 65  1  0  0  0
 29 34  1  0  0  0
 29 66  1  0  0  0
 30 33  2  0  0  0
 30 67  1  0  0  0
 31 38  1  0  0  0
 31 68  1  0  0  0
 32 37  2  0  0  0
 32 69  1  0  0  0
 33 39  1  0  0  0
 33 70  1  0  0  0
 34 39  2  0  0  0
 34 71  1  0  0  0
 35 41  1  0  0  0
 35 72  1  0  0  0
 36 41  2  0  0  0
 36 73  1  0  0  0
 37 40  1  0  0  0
 37 74  1  0  0  0
 38 40  2  0  0  0
 38 75  1  0  0  0
 39 76  1  0  0  0
 40 77  1  0  0  0
 41 78  1  0  0  0
M  END
> <chembl_id>
CHEMBL316201

> <chembl_pref_name>
None

> <i_m_ct_stereo_status>
1

> <s_m_source_file>
sdf/inactives_sanitized.sdf

> <i_m_source_file_index>
247

> <i_lp_mmshare_version>
49012

> <i_f3d_flags>
0

> <s_epik_input>
W2NIXTFbY0hdW2NIXVtjSF1bY0hdYzFbQ0gyXU9DKD1PKVtOSF1bQ0BAXTIoW0NAQEhdKFtDSDJdMilbQ0hdKFtDSDNdKVtDSDNdKUMoPU8pW05IXVtDQEBIXShbQ0gyXWMzW2NIXVtjSF1bY0hdW2NIXVtjSF0zKUMoPU8pQyg9TylbTkhdW0NIMl1bQ0gyXWM0W2NIXVtjSF1bY0hdW2NIXVtjSF00

> <s_epik_cmdline>
J2VwaWtfcHl0aG9uJywgJy1waHQnLCAnMC41JywgJy1waCcsICc3LjUnLCAnLW50JywgJy1tYScsICcyMDAnLCAnLWltYWUnLCAnPGluZmlsZS5tYWU+JywgJy1vbWFlJywgJzxvdXRmaWxlLm1hZT4n

> <r_lp_tautomer_probability>
1

> <r_epik_Ionization_Penalty>
  0.0000

> <r_epik_Ionization_Penalty_Charging>
  0.0000

> <r_epik_Ionization_Penalty_Neutral>
  0.0000

> <r_epik_State_Penalty>
 -0.0000

> <r_epik_Charging_Adjusted_Penalty>
0

> <i_epik_Tot_Q>
0

> <i_epik_Tot_abs_Q>
0

> <s_epik_Chemistry_Notes>
This compound has an ester and may undergo hydrolysis at high or low pH.

> <s_lp_Force_Field>
OPLS3e

> <r_lp_Energy>
48.27043

> <b_lp_Chiralities_Consistent>
1

> <s_lp_Variant>
sdf/inactives_sanitized.sdf:247-1

$$$$
sdf/inactives_sanitized.sdf:248
                    3D
 Schrodinger Suite 2020-1.
 37 38  0  0  1  0            999 V2000
   -2.8457    0.0918    0.2628 C   0  0  0  0  0  0
   -2.0993    1.2579    0.3941 C   0  0  0  0  0  0
   -0.7100    1.2039    0.3186 C   0  0  0  0  0  0
   -0.0445   -0.0114    0.1084 C   0  0  0  0  0  0
   -0.7987   -1.1960   -0.0129 C   0  0  0  0  0  0
   -2.2018   -1.1269    0.0627 C   0  0  0  0  0  0
    1.4442   -0.0161    0.0192 C   0  0  0  0  0  0
    2.1147   -0.5460   -1.0954 C   0  0  0  0  0  0
    3.5108   -0.5508   -1.1509 C   0  0  0  0  0  0
    4.2611   -0.0207   -0.0946 C   0  0  0  0  0  0
    3.5991    0.5152    1.0123 C   0  0  0  0  0  0
    2.2064    0.5171    1.0659 C   0  0  0  0  0  0
    1.4147   -1.0444   -2.1430 F   0  0  0  0  0  0
    4.1325   -1.0677   -2.2375 F   0  0  0  0  0  0
   -0.1086   -2.3838   -0.1815 O   0  0  0  0  0  0
   -0.8342   -3.5964   -0.3420 C   0  0  0  0  0  0
    0.1513   -4.7381   -0.5592 C   0  0  0  0  0  0
    0.0032   -5.8174    0.0106 O   0  0  0  0  0  0
    5.7846   -0.0210   -0.1424 C   0  0  0  0  0  0
    6.3922   -1.3961    0.1903 C   0  0  0  0  0  0
    7.9256   -1.4000    0.1309 C   0  0  0  0  0  0
   -3.9235    0.1303    0.3205 H   0  0  0  0  0  0
   -2.5960    2.2039    0.5519 H   0  0  0  0  0  0
   -0.1458    2.1205    0.4156 H   0  0  0  0  0  0
   -2.8125   -2.0126   -0.0249 H   0  0  0  0  0  0
    4.1612    0.9279    1.8375 H   0  0  0  0  0  0
    1.7168    0.9303    1.9361 H   0  0  0  0  0  0
   -1.4461   -3.8025    0.5374 H   0  0  0  0  0  0
   -1.4835   -3.5318   -1.2158 H   0  0  0  0  0  0
    0.9639   -4.5329   -1.2563 H   0  0  0  0  0  0
    6.1056    0.3073   -1.1323 H   0  0  0  0  0  0
    6.1707    0.7271    0.5522 H   0  0  0  0  0  0
    6.0725   -1.7065    1.1862 H   0  0  0  0  0  0
    6.0095   -2.1476   -0.5017 H   0  0  0  0  0  0
    8.3217   -2.3873    0.3700 H   0  0  0  0  0  0
    8.3520   -0.6912    0.8415 H   0  0  0  0  0  0
    8.2828   -1.1333   -0.8643 H   0  0  0  0  0  0
  1  6  2  0  0  0
  1  2  1  0  0  0
  1 22  1  0  0  0
  2  3  2  0  0  0
  2 23  1  0  0  0
  3  4  1  0  0  0
  3 24  1  0  0  0
  4  5  2  0  0  0
  4  7  1  0  0  0
  5  6  1  0  0  0
  5 15  1  0  0  0
  6 25  1  0  0  0
  7  8  2  0  0  0
  7 12  1  0  0  0
  8  9  1  0  0  0
  8 13  1  0  0  0
  9 10  2  0  0  0
  9 14  1  0  0  0
 10 11  1  0  0  0
 10 19  1  0  0  0
 11 12  2  0  0  0
 11 26  1  0  0  0
 12 27  1  0  0  0
 15 16  1  0  0  0
 16 17  1  0  0  0
 16 28  1  0  0  0
 16 29  1  0  0  0
 17 18  2  0  0  0
 17 30  1  0  0  0
 19 20  1  0  0  0
 19 31  1  0  0  0
 19 32  1  0  0  0
 20 21  1  0  0  0
 20 33  1  0  0  0
 20 34  1  0  0  0
 21 35  1  0  0  0
 21 36  1  0  0  0
 21 37  1  0  0  0
M  END
> <chembl_id>
CHEMBL390726

> <chembl_pref_name>
None

> <s_m_source_file>
sdf/inactives_sanitized.sdf

> <i_m_source_file_index>
248

> <i_lp_mmshare_version>
49012

> <i_m_ct_stereo_status>
1

> <i_f3d_flags>
0

> <s_epik_input>
Tz1bQ0hdW0NIMl1PYzFbY0hdW2NIXVtjSF1bY0hdYzEtYzJjKEYpYyhGKWMoW2NIXVtjSF0yKVtDSDJdW0NIMl1bQ0gzXQ==

> <s_epik_cmdline>
J2VwaWtfcHl0aG9uJywgJy1waHQnLCAnMC41JywgJy1waCcsICc3LjUnLCAnLW50JywgJy1tYScsICcyMDAnLCAnLWltYWUnLCAnPGluZmlsZS5tYWU+JywgJy1vbWFlJywgJzxvdXRmaWxlLm1hZT4n

> <r_lp_tautomer_probability>
0.99990000499975

> <r_epik_Ionization_Penalty>
  0.0139

> <r_epik_Ionization_Penalty_Charging>
  0.0000

> <r_epik_Ionization_Penalty_Neutral>
  0.0139

> <r_epik_State_Penalty>
  0.0109

> <r_epik_Charging_Adjusted_Penalty>
0.0108588939277934

> <i_epik_Tot_Q>
0

> <i_epik_Tot_abs_Q>
0

> <s_lp_Force_Field>
OPLS3e

> <r_lp_Energy>
32.296416

> <b_lp_Chiralities_Consistent>
1

> <s_lp_Variant>
sdf/inactives_sanitized.sdf:248-1

$$$$
sdf/inactives_sanitized.sdf:249
                    3D
 Schrodinger Suite 2020-1.
 31 32  0  0  1  0            999 V2000
   -0.1811   -0.6754   -1.8387 C   0  0  0  0  0  0
   -0.1398    0.0888   -0.1462 S   0  0  1  0  0  0
    2.0588    0.4227   -0.1493 S   0  0  0  0  0  0
    2.1973    0.8723    1.6013 C   0  0  0  0  0  0
   -0.8881    1.4193   -0.2430 O   0  0  0  0  0  0
    0.3379   -2.1053   -1.8058 C   0  0  0  0  0  0
    1.6355   -2.3919   -2.2392 C   0  0  0  0  0  0
    2.1077   -3.7012   -2.2025 C   0  0  0  0  0  0
    1.2802   -4.7202   -1.7351 C   0  0  0  0  0  0
   -0.0155   -4.4422   -1.3052 C   0  0  0  0  0  0
   -0.4882   -3.1329   -1.3418 C   0  0  0  0  0  0
    3.6409    1.1512    1.9841 C   0  0  0  0  0  0
    4.1564    2.4450    1.8668 C   0  0  0  0  0  0
    5.4772    2.7017    2.2255 C   0  0  0  0  0  0
    6.2762    1.6650    2.7036 C   0  0  0  0  0  0
    5.7667    0.3738    2.8269 C   0  0  0  0  0  0
    4.4461    0.1165    2.4681 C   0  0  0  0  0  0
    0.3898   -0.0627   -2.5377 H   0  0  0  0  0  0
   -1.2100   -0.6700   -2.2002 H   0  0  0  0  0  0
    1.7940    0.0674    2.2176 H   0  0  0  0  0  0
    1.5784    1.7481    1.8022 H   0  0  0  0  0  0
    2.2794   -1.6031   -2.6004 H   0  0  0  0  0  0
    3.1107   -3.9251   -2.5344 H   0  0  0  0  0  0
    1.6466   -5.7358   -1.7058 H   0  0  0  0  0  0
   -0.6502   -5.2382   -0.9442 H   0  0  0  0  0  0
   -1.4923   -2.9176   -1.0056 H   0  0  0  0  0  0
    3.5373    3.2491    1.4958 H   0  0  0  0  0  0
    5.8805    3.6995    2.1335 H   0  0  0  0  0  0
    7.3006    1.8643    2.9821 H   0  0  0  0  0  0
    6.3927   -0.4239    3.1992 H   0  0  0  0  0  0
    4.0519   -0.8849    2.5635 H   0  0  0  0  0  0
  1  6  1  0  0  0
  1  2  1  0  0  0
  1 18  1  0  0  0
  1 19  1  0  0  0
  2  5  2  0  0  0
  2  3  1  0  0  0
  3  4  1  0  0  0
  4 12  1  0  0  0
  4 20  1  0  0  0
  4 21  1  0  0  0
  6 11  2  0  0  0
  6  7  1  0  0  0
  7  8  2  0  0  0
  7 22  1  0  0  0
  8  9  1  0  0  0
  8 23  1  0  0  0
  9 10  2  0  0  0
  9 24  1  0  0  0
 10 11  1  0  0  0
 10 25  1  0  0  0
 11 26  1  0  0  0
 12 13  2  0  0  0
 12 17  1  0  0  0
 13 14  1  0  0  0
 13 27  1  0  0  0
 14 15  2  0  0  0
 14 28  1  0  0  0
 15 16  1  0  0  0
 15 29  1  0  0  0
 16 17  2  0  0  0
 16 30  1  0  0  0
 17 31  1  0  0  0
M  END
> <chembl_id>
CHEMBL1224167

> <chembl_pref_name>
None

> <s_m_source_file>
sdf/inactives_sanitized.sdf

> <i_m_source_file_index>
249

> <i_lp_mmshare_version>
49012

> <i_m_ct_stereo_status>
1

> <i_f3d_flags>
0

> <s_epik_input>
W2NIXTFbY0hdW2NIXVtjSF1bY0hdYzFbQ0gyXVtTK10oW08tXSlTW0NIMl1jMltjSF1bY0hdW2NIXVtjSF1bY0hdMg==

> <s_epik_cmdline>
J2VwaWtfcHl0aG9uJywgJy1waHQnLCAnMC41JywgJy1waCcsICc3LjUnLCAnLW50JywgJy1tYScsICcyMDAnLCAnLWltYWUnLCAnPGluZmlsZS5tYWU+JywgJy1vbWFlJywgJzxvdXRmaWxlLm1hZT4n

> <r_lp_tautomer_probability>
1

> <r_epik_Ionization_Penalty>
  0.0000

> <r_epik_Ionization_Penalty_Charging>
  0.0000

> <r_epik_Ionization_Penalty_Neutral>
  0.0000

> <r_epik_State_Penalty>
 -0.0000

> <r_epik_Charging_Adjusted_Penalty>
0

> <i_epik_Tot_Q>
0

> <i_epik_Tot_abs_Q>
2

> <s_lp_Force_Field>
OPLS3e

> <r_lp_Energy>
8.663841

> <b_lp_Chiralities_Consistent>
1

> <s_lp_Variant>
sdf/inactives_sanitized.sdf:249-1

$$$$
sdf/inactives_sanitized.sdf:250
                    3D
 Schrodinger Suite 2020-1.
 41 40  0  0  1  0            999 V2000
   -0.5941   -1.0232   -1.8336 C   0  0  0  0  0  0
   -0.3813   -0.5744   -0.0414 S   0  0  1  0  0  0
    1.7869   -1.0686    0.0439 S   0  0  0  0  0  0
    1.9687   -0.8860    1.8407 C   0  0  0  0  0  0
   -0.6087    0.9335    0.0816 O   0  0  0  0  0  0
    0.1742   -0.0681   -2.7681 C   0  0  0  0  0  0
   -0.0972   -0.3500   -4.2561 C   0  0  0  0  0  0
    0.6628    0.6026   -5.1965 C   0  0  0  0  0  0
    0.3805    0.3285   -6.6840 C   0  0  0  0  0  0
    1.1266    1.2879   -7.6214 C   0  0  0  0  0  0
    3.3743   -1.1711    2.3969 C   0  0  0  0  0  0
    4.4435   -0.1530    1.9484 C   0  0  0  0  0  0
    5.8687   -0.4707    2.4431 C   0  0  0  0  0  0
    6.0517   -0.3702    3.9698 C   0  0  0  0  0  0
    7.4979   -0.6272    4.4146 C   0  0  0  0  0  0
   -1.6613   -0.9776   -2.0523 H   0  0  0  0  0  0
   -0.2897   -2.0598   -1.9816 H   0  0  0  0  0  0
    1.2513   -1.5534    2.3192 H   0  0  0  0  0  0
    1.6671    0.1278    2.1077 H   0  0  0  0  0  0
   -0.1046    0.9621   -2.5419 H   0  0  0  0  0  0
    1.2455   -0.1388   -2.5814 H   0  0  0  0  0  0
   -1.1681   -0.2682   -4.4491 H   0  0  0  0  0  0
    0.1772   -1.3810   -4.4852 H   0  0  0  0  0  0
    0.3929    1.6335   -4.9617 H   0  0  0  0  0  0
    1.7344    0.5171   -5.0101 H   0  0  0  0  0  0
    0.6599   -0.6975   -6.9275 H   0  0  0  0  0  0
   -0.6908    0.4070   -6.8744 H   0  0  0  0  0  0
    0.9006    1.0664   -8.6647 H   0  0  0  0  0  0
    2.2065    1.2072   -7.4926 H   0  0  0  0  0  0
    0.8431    2.3243   -7.4353 H   0  0  0  0  0  0
    3.3153   -1.1832    3.4854 H   0  0  0  0  0  0
    3.6790   -2.1763    2.1019 H   0  0  0  0  0  0
    4.4644   -0.1119    0.8587 H   0  0  0  0  0  0
    4.1586    0.8476    2.2772 H   0  0  0  0  0  0
    6.1564   -1.4669    2.1032 H   0  0  0  0  0  0
    6.5619    0.2196    1.9599 H   0  0  0  0  0  0
    5.7435    0.6188    4.3116 H   0  0  0  0  0  0
    5.4005   -1.0850    4.4731 H   0  0  0  0  0  0
    7.5907   -0.5539    5.4985 H   0  0  0  0  0  0
    8.1829    0.0984    3.9748 H   0  0  0  0  0  0
    7.8307   -1.6237    4.1213 H   0  0  0  0  0  0
  1  6  1  0  0  0
  1  2  1  0  0  0
  1 16  1  0  0  0
  1 17  1  0  0  0
  2  5  2  0  0  0
  2  3  1  0  0  0
  3  4  1  0  0  0
  4 11  1  0  0  0
  4 18  1  0  0  0
  4 19  1  0  0  0
  6  7  1  0  0  0
  6 20  1  0  0  0
  6 21  1  0  0  0
  7  8  1  0  0  0
  7 22  1  0  0  0
  7 23  1  0  0  0
  8  9  1  0  0  0
  8 24  1  0  0  0
  8 25  1  0  0  0
  9 10  1  0  0  0
  9 26  1  0  0  0
  9 27  1  0  0  0
 10 28  1  0  0  0
 10 29  1  0  0  0
 10 30  1  0  0  0
 11 12  1  0  0  0
 11 31  1  0  0  0
 11 32  1  0  0  0
 12 13  1  0  0  0
 12 33  1  0  0  0
 12 34  1  0  0  0
 13 14  1  0  0  0
 13 35  1  0  0  0
 13 36  1  0  0  0
 14 15  1  0  0  0
 14 37  1  0  0  0
 14 38  1  0  0  0
 15 39  1  0  0  0
 15 40  1  0  0  0
 15 41  1  0  0  0
M  END
> <chembl_id>
CHEMBL1224171

> <chembl_pref_name>
None

> <s_m_source_file>
sdf/inactives_sanitized.sdf

> <i_m_source_file_index>
250

> <i_lp_mmshare_version>
49012

> <i_m_ct_stereo_status>
1

> <i_f3d_flags>
0

> <s_epik_input>
W0NIM11bQ0gyXVtDSDJdW0NIMl1bQ0gyXVtDSDJdW1MrXShbTy1dKVNbQ0gyXVtDSDJdW0NIMl1bQ0gyXVtDSDJdW0NIM10=

> <s_epik_cmdline>
J2VwaWtfcHl0aG9uJywgJy1waHQnLCAnMC41JywgJy1waCcsICc3LjUnLCAnLW50JywgJy1tYScsICcyMDAnLCAnLWltYWUnLCAnPGluZmlsZS5tYWU+JywgJy1vbWFlJywgJzxvdXRmaWxlLm1hZT4n

> <r_lp_tautomer_probability>
1

> <r_epik_Ionization_Penalty>
  0.0000

> <r_epik_Ionization_Penalty_Charging>
  0.0000

> <r_epik_Ionization_Penalty_Neutral>
  0.0000

> <r_epik_State_Penalty>
 -0.0000

> <r_epik_Charging_Adjusted_Penalty>
0

> <i_epik_Tot_Q>
0

> <i_epik_Tot_abs_Q>
2

> <s_lp_Force_Field>
OPLS3e

> <r_lp_Energy>
0.625182

> <b_lp_Chiralities_Consistent>
1

> <s_lp_Variant>
sdf/inactives_sanitized.sdf:250-1

$$$$
sdf/inactives_sanitized.sdf:251
                    3D
 Schrodinger Suite 2020-1.
 49 51  0  0  1  0            999 V2000
   -1.9354    1.5464    1.7860 S   0  0  0  0  0  0
   -1.3681    0.6434    0.3876 N   0  0  1  0  0  0
   -0.5395   -0.6036    0.4389 C   0  0  2  0  0  0
    0.9434   -0.4397    0.0641 C   0  0  0  0  0  0
   -1.3849   -1.1069   -0.7447 C   0  0  0  0  0  0
   -2.2092    0.1892   -0.7691 C   0  0  0  0  0  0
   -2.3745    3.1508    1.1259 C   0  0  0  0  0  0
    1.7438   -1.4821    0.3561 N   0  0  0  0  0  0
   -3.1614    0.8969    2.2643 O   0  0  0  0  0  0
   -0.7883    1.7314    2.6825 O   0  0  0  0  0  0
    1.3548    0.5941   -0.4655 O   0  0  0  0  0  0
    3.1796   -1.5901    0.0428 C   0  0  2  0  0  0
   -3.6693    3.3757    0.6547 C   0  0  0  0  0  0
   -1.4097    4.1569    1.0463 C   0  0  0  0  0  0
    2.4817   -2.0755   -2.2556 O   0  0  0  0  0  0
    3.3862   -1.9026   -1.4368 C   0  0  0  0  0  0
    3.8140   -2.6839    0.9383 C   0  0  0  0  0  0
   -1.7459    5.3963    0.5086 C   0  0  0  0  0  0
   -4.0037    4.6152    0.1164 C   0  0  0  0  0  0
   -3.0419    5.6246    0.0408 C   0  0  0  0  0  0
    5.3308   -2.6535    1.0393 C   0  0  0  0  0  0
   -3.4138    6.9785   -0.5359 C   0  0  0  0  0  0
    6.1222   -3.4360    0.1713 C   0  0  0  0  0  0
    5.9636   -1.7241    1.8918 C   0  0  0  0  0  0
    7.3493   -1.6358    1.9167 C   0  0  0  0  0  0
    7.5065   -3.3331    0.2116 C   0  0  0  0  0  0
    8.1169   -2.4412    1.0847 C   0  0  0  0  0  0
   -0.6666   -1.1532    1.3734 H   0  0  0  0  0  0
   -1.9684   -1.9983   -0.5106 H   0  0  0  0  0  0
   -0.8381   -1.2968   -1.6714 H   0  0  0  0  0  0
   -2.0620    0.7623   -1.6849 H   0  0  0  0  0  0
   -3.2502   -0.0177   -0.5182 H   0  0  0  0  0  0
    1.3343   -2.2994    0.7846 H   0  0  0  0  0  0
    3.6546   -0.6348    0.2766 H   0  0  0  0  0  0
   -4.4150    2.5957    0.7014 H   0  0  0  0  0  0
   -0.4024    3.9837    1.3963 H   0  0  0  0  0  0
    4.4322   -1.9714   -1.7360 H   0  0  0  0  0  0
    3.4272   -2.5822    1.9543 H   0  0  0  0  0  0
    3.4868   -3.6785    0.6281 H   0  0  0  0  0  0
   -0.9978    6.1738    0.4529 H   0  0  0  0  0  0
   -5.0074    4.7871   -0.2443 H   0  0  0  0  0  0
   -4.4292    7.2524   -0.2464 H   0  0  0  0  0  0
   -3.3620    6.9582   -1.6247 H   0  0  0  0  0  0
   -2.7574    7.7654   -0.1618 H   0  0  0  0  0  0
    5.6556   -4.1192   -0.5233 H   0  0  0  0  0  0
    5.3734   -1.0811    2.5285 H   0  0  0  0  0  0
    7.8317   -0.9331    2.5798 H   0  0  0  0  0  0
    8.1106   -3.9432   -0.4436 H   0  0  0  0  0  0
    9.1940   -2.3650    1.1083 H   0  0  0  0  0  0
  1  2  1  0  0  0
  1  7  1  0  0  0
  1  9  2  0  0  0
  1 10  2  0  0  0
  2  3  1  0  0  0
  2  6  1  0  0  0
  3  4  1  0  0  0
  3  5  1  0  0  0
  3 28  1  0  0  0
  4  8  1  0  0  0
  4 11  2  0  0  0
  5  6  1  0  0  0
  5 29  1  0  0  0
  5 30  1  0  0  0
  6 31  1  0  0  0
  6 32  1  0  0  0
  7 13  2  0  0  0
  7 14  1  0  0  0
  8 12  1  0  0  0
  8 33  1  0  0  0
 12 16  1  0  0  0
 12 17  1  0  0  0
 12 34  1  0  0  0
 13 19  1  0  0  0
 13 35  1  0  0  0
 14 18  2  0  0  0
 14 36  1  0  0  0
 15 16  2  0  0  0
 16 37  1  0  0  0
 17 21  1  0  0  0
 17 38  1  0  0  0
 17 39  1  0  0  0
 18 20  1  0  0  0
 18 40  1  0  0  0
 19 20  2  0  0  0
 19 41  1  0  0  0
 20 22  1  0  0  0
 21 23  2  0  0  0
 21 24  1  0  0  0
 22 42  1  0  0  0
 22 43  1  0  0  0
 22 44  1  0  0  0
 23 26  1  0  0  0
 23 45  1  0  0  0
 24 25  2  0  0  0
 24 46  1  0  0  0
 25 27  1  0  0  0
 25 47  1  0  0  0
 26 27  2  0  0  0
 26 48  1  0  0  0
 27 49  1  0  0  0
M  END
> <chembl_id>
CHEMBL440369

> <chembl_pref_name>
None

> <s_m_source_file>
sdf/inactives_sanitized.sdf

> <i_m_source_file_index>
251

> <i_lp_mmshare_version>
49012

> <i_m_ct_stereo_status>
1

> <i_f3d_flags>
0

> <s_epik_input>
W2NIXTFbY0hdYyhbQ0gzXSlbY0hdW2NIXWMxUyg9TykoPU8pTjJbQ0BASF0oW0NIMl1bQ0gyXTIpQyg9TylbTkhdW0NASF0oW0NIXT1PKVtDSDJdYzNbY0hdW2NIXVtjSF1bY0hdW2NIXTM=

> <s_epik_cmdline>
J2VwaWtfcHl0aG9uJywgJy1waHQnLCAnMC41JywgJy1waCcsICc3LjUnLCAnLW50JywgJy1tYScsICcyMDAnLCAnLWltYWUnLCAnPGluZmlsZS5tYWU+JywgJy1vbWFlJywgJzxvdXRmaWxlLm1hZT4n

> <r_lp_tautomer_probability>
1

> <r_epik_Ionization_Penalty>
  0.0034

> <r_epik_Ionization_Penalty_Charging>
  0.0000

> <r_epik_Ionization_Penalty_Neutral>
  0.0034

> <r_epik_State_Penalty>
 -0.0000

> <r_epik_Charging_Adjusted_Penalty>
0

> <i_epik_Tot_Q>
0

> <i_epik_Tot_abs_Q>
0

> <s_lp_Force_Field>
OPLS3e

> <r_lp_Energy>
27.873772

> <b_lp_Chiralities_Consistent>
1

> <s_lp_Variant>
sdf/inactives_sanitized.sdf:251-1

$$$$
sdf/inactives_sanitized.sdf:252
                    3D
 Schrodinger Suite 2020-1.
 75 78  0  0  1  0            999 V2000
    5.2937   -2.4152   -0.6094 S   0  0  0  0  0  0
    3.5585   -2.1705   -0.7684 N   0  0  2  0  0  0
   -1.2400    0.5066    0.6512 C   0  0  0  0  0  0
   -2.7173    0.7200    0.2551 C   0  0  1  0  0  0
   -3.4355    1.5675    1.3154 C   0  0  0  0  0  0
    5.4574   -3.9583    0.2824 C   0  0  0  0  0  0
   -3.1872    2.9422    1.4417 C   0  0  0  0  0  0
   -0.8955   -0.7357    1.0423 N   0  0  0  0  0  0
    5.8298   -2.6527   -1.9540 O   0  0  0  0  0  0
    5.8300   -1.3440    0.2387 O   0  0  0  0  0  0
   -3.8322    3.7214    2.4144 C   0  0  0  0  0  0
    1.3188   -1.5013    0.1630 C   0  0  0  0  0  0
    2.7619   -1.9324    0.4535 C   0  0  0  0  0  0
   -0.4371    1.4399    0.5877 O   0  0  0  0  0  0
   -2.8840    1.2931   -1.1840 C   0  0  0  0  0  0
    0.8758   -1.4370   -0.9879 O   0  0  0  0  0  0
   -3.5562    5.1858    2.5353 C   0  0  0  0  0  0
    6.1762   -4.0153    1.4774 C   0  0  0  0  0  0
    4.8589   -5.1070   -0.2350 C   0  0  0  0  0  0
    5.7548   -7.6188    2.2616 O   0  0  0  0  0  0
    0.4594   -1.1742    1.4015 C   0  0  0  0  0  0
    5.6769   -6.3815    1.6516 C   0  0  0  0  0  0
    4.9726   -6.3137    0.4488 C   0  0  0  0  0  0
    6.2885   -5.2242    2.1585 C   0  0  0  0  0  0
    6.1559   -7.7479    3.5715 C   0  0  0  0  0  0
   -4.3421    0.9628    2.1923 C   0  0  0  0  0  0
   -4.7412    3.0839    3.2713 C   0  0  0  0  0  0
   -4.9935    1.7178    3.1640 C   0  0  0  0  0  0
   -2.2404    0.4790   -2.3403 C   0  0  0  0  0  0
   -4.5690    6.0768    2.9201 C   0  0  0  0  0  0
   -2.2790    5.6998    2.2659 C   0  0  0  0  0  0
    5.3893   -7.2128    4.6119 C   0  0  0  0  0  0
    7.3259   -8.4542    3.8528 C   0  0  0  0  0  0
   -2.4380    1.1944   -3.6893 C   0  0  0  0  0  0
   -2.7478   -0.9745   -2.4153 C   0  0  0  0  0  0
   -2.0205    7.0634    2.3777 C   0  0  0  0  0  0
   -4.3146    7.4411    3.0324 C   0  0  0  0  0  0
    7.7425   -8.6107    5.1722 C   0  0  0  0  0  0
    5.8060   -7.3692    5.9313 C   0  0  0  0  0  0
    6.9816   -8.0659    6.2050 C   0  0  0  0  0  0
   -3.0403    7.9293    2.7606 C   0  0  0  0  0  0
    3.0979   -2.7213   -1.4981 H   0  0  0  0  0  0
   -3.2101   -0.2543    0.2540 H   0  0  0  0  0  0
   -2.4838    3.4094    0.7684 H   0  0  0  0  0  0
   -1.6185   -1.4383    1.0941 H   0  0  0  0  0  0
    3.2603   -1.1732    1.0572 H   0  0  0  0  0  0
    2.7393   -2.8563    1.0322 H   0  0  0  0  0  0
   -3.9509    1.3974   -1.3900 H   0  0  0  0  0  0
   -2.4799    2.3060   -1.2212 H   0  0  0  0  0  0
    6.6504   -3.1328    1.8811 H   0  0  0  0  0  0
    4.3082   -5.0659   -1.1635 H   0  0  0  0  0  0
    0.9609   -0.4157    2.0057 H   0  0  0  0  0  0
    0.3822   -2.0623    2.0291 H   0  0  0  0  0  0
    4.5097   -7.2018    0.0439 H   0  0  0  0  0  0
    6.8565   -5.2536    3.0766 H   0  0  0  0  0  0
   -4.5463   -0.0959    2.1245 H   0  0  0  0  0  0
   -5.2520    3.6428    4.0415 H   0  0  0  0  0  0
   -5.6918    1.2433    3.8376 H   0  0  0  0  0  0
   -1.1639    0.4365   -2.1675 H   0  0  0  0  0  0
   -5.5672    5.7187    3.1250 H   0  0  0  0  0  0
   -1.4713    5.0429    1.9778 H   0  0  0  0  0  0
    4.4767   -6.6772    4.3950 H   0  0  0  0  0  0
    7.9109   -8.8767    3.0490 H   0  0  0  0  0  0
   -3.4942    1.2690   -3.9509 H   0  0  0  0  0  0
   -1.9334    0.6629   -4.4970 H   0  0  0  0  0  0
   -2.0302    2.2057   -3.6648 H   0  0  0  0  0  0
   -3.8316   -1.0139   -2.5307 H   0  0  0  0  0  0
   -2.4850   -1.5398   -1.5211 H   0  0  0  0  0  0
   -2.3053   -1.5028   -3.2606 H   0  0  0  0  0  0
   -1.0322    7.4466    2.1702 H   0  0  0  0  0  0
   -5.1033    8.1177    3.3269 H   0  0  0  0  0  0
    8.6500   -9.1530    5.3936 H   0  0  0  0  0  0
    5.2201   -6.9546    6.7383 H   0  0  0  0  0  0
    7.3047   -8.1880    7.2285 H   0  0  0  0  0  0
   -2.8413    8.9873    2.8480 H   0  0  0  0  0  0
  1  2  1  0  0  0
  1  6  1  0  0  0
  1  9  2  0  0  0
  1 10  2  0  0  0
  2 13  1  0  0  0
  2 42  1  0  0  0
  3  8  1  0  0  0
  3  4  1  0  0  0
  3 14  2  0  0  0
  4  5  1  0  0  0
  4 15  1  0  0  0
  4 43  1  0  0  0
  5  7  2  0  0  0
  5 26  1  0  0  0
  6 18  2  0  0  0
  6 19  1  0  0  0
  7 11  1  0  0  0
  7 44  1  0  0  0
  8 21  1  0  0  0
  8 45  1  0  0  0
 11 17  1  0  0  0
 11 27  2  0  0  0
 12 13  1  0  0  0
 12 16  2  0  0  0
 12 21  1  0  0  0
 13 46  1  0  0  0
 13 47  1  0  0  0
 15 29  1  0  0  0
 15 48  1  0  0  0
 15 49  1  0  0  0
 17 30  2  0  0  0
 17 31  1  0  0  0
 18 24  1  0  0  0
 18 50  1  0  0  0
 19 23  2  0  0  0
 19 51  1  0  0  0
 20 22  1  0  0  0
 20 25  1  0  0  0
 21 52  1  0  0  0
 21 53  1  0  0  0
 22 23  1  0  0  0
 22 24  2  0  0  0
 23 54  1  0  0  0
 24 55  1  0  0  0
 25 32  2  0  0  0
 25 33  1  0  0  0
 26 28  2  0  0  0
 26 56  1  0  0  0
 27 28  1  0  0  0
 27 57  1  0  0  0
 28 58  1  0  0  0
 29 34  1  0  0  0
 29 35  1  0  0  0
 29 59  1  0  0  0
 30 37  1  0  0  0
 30 60  1  0  0  0
 31 36  2  0  0  0
 31 61  1  0  0  0
 32 39  1  0  0  0
 32 62  1  0  0  0
 33 38  2  0  0  0
 33 63  1  0  0  0
 34 64  1  0  0  0
 34 65  1  0  0  0
 34 66  1  0  0  0
 35 67  1  0  0  0
 35 68  1  0  0  0
 35 69  1  0  0  0
 36 41  1  0  0  0
 36 70  1  0  0  0
 37 41  2  0  0  0
 37 71  1  0  0  0
 38 40  1  0  0  0
 38 72  1  0  0  0
 39 40  2  0  0  0
 39 73  1  0  0  0
 40 74  1  0  0  0
 41 75  1  0  0  0
M  END
> <chembl_id>
CHEMBL99890

> <chembl_pref_name>
None

> <i_m_ct_stereo_status>
1

> <s_m_source_file>
sdf/inactives_sanitized.sdf

> <i_m_source_file_index>
252

> <i_lp_mmshare_version>
49012

> <i_f3d_flags>
0

> <s_epik_input>
W2NIXTFbY0hdW2NIXVtjSF1bY0hdYzFPYyhbY0hdW2NIXTIpW2NIXVtjSF1jMlMoPU8pKD1PKVtOSF1bQ0gyXUMoPU8pW0NIMl1bTkhdQyg9TylbQ0BIXShbQ0gyXVtDSF0oW0NIM10pW0NIM10pYzNbY0hdYyhbY0hdW2NIXVtjSF0zKS1jNFtjSF1bY0hdW2NIXVtjSF1bY0hdNA==

> <s_epik_cmdline>
J2VwaWtfcHl0aG9uJywgJy1waHQnLCAnMC41JywgJy1waCcsICc3LjUnLCAnLW50JywgJy1tYScsICcyMDAnLCAnLWltYWUnLCAnPGluZmlsZS5tYWU+JywgJy1vbWFlJywgJzxvdXRmaWxlLm1hZT4n

> <r_lp_tautomer_probability>
1

> <r_epik_Ionization_Penalty>
  0.0006

> <r_epik_Ionization_Penalty_Charging>
  0.0000

> <r_epik_Ionization_Penalty_Neutral>
  0.0006

> <r_epik_State_Penalty>
 -0.0000

> <r_epik_Charging_Adjusted_Penalty>
0

> <i_epik_Tot_Q>
0

> <i_epik_Tot_abs_Q>
0

> <s_lp_Force_Field>
OPLS3e

> <r_lp_Energy>
50.758484

> <b_lp_Chiralities_Consistent>
1

> <s_lp_Variant>
sdf/inactives_sanitized.sdf:252-1

$$$$
sdf/inactives_sanitized.sdf:253
                    3D
 Schrodinger Suite 2020-1.
 40 42  0  0  1  0            999 V2000
    0.0293   -2.1002    3.0730 C   0  0  0  0  0  0
   -0.5963   -3.3218    3.2632 C   0  0  0  0  0  0
   -1.3990   -3.8254    2.2467 C   0  0  0  0  0  0
   -0.0882   -1.3781    1.9373 N   0  0  0  0  0  0
   -0.8577   -1.8535    0.9110 C   0  0  0  0  0  0
   -1.5777   -3.0929    1.0334 C   0  0  0  0  0  0
   -2.4051   -3.5388   -0.0545 C   0  0  0  0  0  0
   -2.4438   -2.7721   -1.2212 C   0  0  0  0  0  0
   -1.7395   -1.5857   -1.3417 C   0  0  0  0  0  0
   -0.9453   -1.0980   -0.3075 C   0  0  0  0  0  0
   -3.2319   -4.7700    0.0015 N   0  3  0  0  0  0
   -3.3965   -5.4017   -1.0385 O   0  0  0  0  0  0
   -3.7660   -5.0837    1.0597 O   0  5  0  0  0  0
   -0.2822    0.1255   -0.5609 N   0  0  0  0  0  0
   -0.9917    1.2628    0.0153 C   0  0  0  0  0  0
    1.1773    0.1671   -0.4190 C   0  0  0  0  0  0
    1.9320   -0.9584   -1.1579 C   0  0  0  0  0  0
    3.4376   -0.8561   -0.9736 C   0  0  0  0  0  0
    4.2062   -0.1320   -1.8888 C   0  0  0  0  0  0
    5.5835   -0.0295   -1.7110 C   0  0  0  0  0  0
    6.1864   -0.6510   -0.6193 C   0  0  0  0  0  0
    5.4253   -1.3749    0.2962 C   0  0  0  0  0  0
    4.0480   -1.4774    0.1194 C   0  0  0  0  0  0
    0.6570   -1.6794    3.8444 H   0  0  0  0  0  0
   -0.4614   -3.8724    4.1827 H   0  0  0  0  0  0
   -1.8654   -4.7853    2.3968 H   0  0  0  0  0  0
   -3.0540   -3.0880   -2.0551 H   0  0  0  0  0  0
   -1.8189   -1.0331   -2.2674 H   0  0  0  0  0  0
   -2.0498    1.2396   -0.2503 H   0  0  0  0  0  0
   -0.5798    2.2032   -0.3528 H   0  0  0  0  0  0
   -0.9239    1.2552    1.1040 H   0  0  0  0  0  0
    1.5141    1.1240   -0.8212 H   0  0  0  0  0  0
    1.4446    0.1598    0.6377 H   0  0  0  0  0  0
    1.6044   -1.9399   -0.8117 H   0  0  0  0  0  0
    1.6905   -0.9397   -2.2220 H   0  0  0  0  0  0
    3.7386    0.3534   -2.7333 H   0  0  0  0  0  0
    6.1815    0.5304   -2.4149 H   0  0  0  0  0  0
    7.2545   -0.5699   -0.4808 H   0  0  0  0  0  0
    5.9007   -1.8528    1.1401 H   0  0  0  0  0  0
    3.4574   -2.0349    0.8320 H   0  0  0  0  0  0
  1  2  2  0  0  0
  1  4  1  0  0  0
  1 24  1  0  0  0
  2  3  1  0  0  0
  2 25  1  0  0  0
  3  6  2  0  0  0
  3 26  1  0  0  0
  4  5  2  0  0  0
  5  6  1  0  0  0
  5 10  1  0  0  0
  6  7  1  0  0  0
  7  8  2  0  0  0
  7 11  1  0  0  0
  8  9  1  0  0  0
  8 27  1  0  0  0
  9 10  2  0  0  0
  9 28  1  0  0  0
 10 14  1  0  0  0
 11 12  2  0  0  0
 11 13  1  0  0  0
 14 15  1  0  0  0
 14 16  1  0  0  0
 15 29  1  0  0  0
 15 30  1  0  0  0
 15 31  1  0  0  0
 16 17  1  0  0  0
 16 32  1  0  0  0
 16 33  1  0  0  0
 17 18  1  0  0  0
 17 34  1  0  0  0
 17 35  1  0  0  0
 18 19  2  0  0  0
 18 23  1  0  0  0
 19 20  1  0  0  0
 19 36  1  0  0  0
 20 21  2  0  0  0
 20 37  1  0  0  0
 21 22  1  0  0  0
 21 38  1  0  0  0
 22 23  2  0  0  0
 22 39  1  0  0  0
 23 40  1  0  0  0
M  CHG  2  11   1  13  -1
M  END
> <chembl_id>
CHEMBL2312199

> <chembl_pref_name>
None

> <s_m_source_file>
sdf/inactives_sanitized.sdf

> <i_m_source_file_index>
253

> <i_lp_mmshare_version>
49012

> <i_m_ct_stereo_status>
1

> <i_f3d_flags>
0

> <s_epik_input>
bjFbY0hdW2NIXVtjSF1jKGMxMiljKFtOK10oPU8pW08tXSlbY0hdW2NIXWMyTihbQ0gzXSlbQ0gyXVtDSDJdYzNbY0hdW2NIXVtjSF1bY0hdW2NIXTM=

> <s_epik_cmdline>
J2VwaWtfcHl0aG9uJywgJy1waHQnLCAnMC41JywgJy1waCcsICc3LjUnLCAnLW50JywgJy1tYScsICcyMDAnLCAnLWltYWUnLCAnPGluZmlsZS5tYWU+JywgJy1vbWFlJywgJzxvdXRmaWxlLm1hZT4n

> <r_lp_tautomer_probability>
1

> <r_epik_Ionization_Penalty>
  0.0000

> <r_epik_Ionization_Penalty_Charging>
  0.0000

> <r_epik_Ionization_Penalty_Neutral>
  0.0000

> <r_epik_State_Penalty>
 -0.0000

> <r_epik_Charging_Adjusted_Penalty>
0

> <i_epik_Tot_Q>
0

> <i_epik_Tot_abs_Q>
2

> <s_lp_Force_Field>
OPLS3e

> <r_lp_Energy>
56.986316

> <b_lp_Chiralities_Consistent>
1

> <s_lp_Variant>
sdf/inactives_sanitized.sdf:253-1

$$$$
sdf/inactives_sanitized.sdf:254
                    3D
 Schrodinger Suite 2020-1.
 43 45  0  0  1  0            999 V2000
   -4.1996   -5.0837    0.9495 C   0  0  0  0  0  0
   -5.5528   -5.3720    1.0127 C   0  0  0  0  0  0
   -6.4608   -4.3921    0.6313 C   0  0  0  0  0  0
   -3.7164   -3.8952    0.5274 N   0  0  0  0  0  0
   -4.5821   -2.9005    0.1553 C   0  0  0  0  0  0
   -6.0058   -3.1095    0.1958 C   0  0  0  0  0  0
   -6.8860   -2.0565   -0.2268 C   0  0  0  0  0  0
   -6.3230   -0.8841   -0.7309 C   0  0  0  0  0  0
   -4.9532   -0.6893   -0.7792 C   0  0  0  0  0  0
   -4.0459   -1.6532   -0.3262 C   0  0  0  0  0  0
   -8.3660   -2.1504   -0.1572 N   0  3  0  0  0  0
   -9.0225   -1.5685   -1.0165 O   0  0  0  0  0  0
   -8.8839   -2.7504    0.7784 O   0  5  0  0  0  0
   -2.6703   -1.3844   -0.3395 N   0  0  0  0  0  0
   -1.9683   -1.3633    0.9641 C   0  0  0  0  0  0
   -0.4416   -1.5390    0.8205 C   0  0  0  0  0  0
    0.1319   -0.3970   -0.0396 C   0  0  0  0  0  0
   -0.5821   -0.4457   -1.4022 C   0  0  0  0  0  0
   -2.1084   -0.3193   -1.2005 C   0  0  0  0  0  0
    1.6617   -0.4947   -0.2162 C   0  0  0  0  0  0
    2.1669    0.5769   -0.8667 O   0  0  0  0  0  0
    2.3195   -1.4475    0.2112 O   0  0  0  0  0  0
    3.5601    0.6774   -1.1292 C   0  0  0  0  0  0
    3.8432    1.9880   -1.8698 C   0  0  0  0  0  0
   -3.4667   -5.8245    1.2342 H   0  0  0  0  0  0
   -5.8949   -6.3421    1.3426 H   0  0  0  0  0  0
   -7.5093   -4.6396    0.6519 H   0  0  0  0  0  0
   -6.9617   -0.0808   -1.0692 H   0  0  0  0  0  0
   -4.6085    0.2627   -1.1542 H   0  0  0  0  0  0
   -2.1973   -0.4195    1.4626 H   0  0  0  0  0  0
   -2.3344   -2.1437    1.6291 H   0  0  0  0  0  0
   -0.0068   -1.5086    1.8210 H   0  0  0  0  0  0
   -0.2249   -2.5262    0.4068 H   0  0  0  0  0  0
   -0.0724    0.5551    0.4523 H   0  0  0  0  0  0
   -0.2674    0.3962   -2.0210 H   0  0  0  0  0  0
   -0.3568   -1.3535   -1.9660 H   0  0  0  0  0  0
   -2.5800   -0.3800   -2.1825 H   0  0  0  0  0  0
   -2.3603    0.6578   -0.7838 H   0  0  0  0  0  0
    4.1200    0.6509   -0.1930 H   0  0  0  0  0  0
    3.8881   -0.1698   -1.7335 H   0  0  0  0  0  0
    4.9076    2.0910   -2.0809 H   0  0  0  0  0  0
    3.5376    2.8502   -1.2765 H   0  0  0  0  0  0
    3.3100    2.0273   -2.8202 H   0  0  0  0  0  0
  1  2  2  0  0  0
  1  4  1  0  0  0
  1 25  1  0  0  0
  2  3  1  0  0  0
  2 26  1  0  0  0
  3  6  2  0  0  0
  3 27  1  0  0  0
  4  5  2  0  0  0
  5  6  1  0  0  0
  5 10  1  0  0  0
  6  7  1  0  0  0
  7  8  2  0  0  0
  7 11  1  0  0  0
  8  9  1  0  0  0
  8 28  1  0  0  0
  9 10  2  0  0  0
  9 29  1  0  0  0
 10 14  1  0  0  0
 11 12  2  0  0  0
 11 13  1  0  0  0
 14 15  1  0  0  0
 14 19  1  0  0  0
 15 16  1  0  0  0
 15 30  1  0  0  0
 15 31  1  0  0  0
 16 17  1  0  0  0
 16 32  1  0  0  0
 16 33  1  0  0  0
 17 18  1  0  0  0
 17 20  1  0  0  0
 17 34  1  0  0  0
 18 19  1  0  0  0
 18 35  1  0  0  0
 18 36  1  0  0  0
 19 37  1  0  0  0
 19 38  1  0  0  0
 20 21  1  0  0  0
 20 22  2  0  0  0
 21 23  1  0  0  0
 23 24  1  0  0  0
 23 39  1  0  0  0
 23 40  1  0  0  0
 24 41  1  0  0  0
 24 42  1  0  0  0
 24 43  1  0  0  0
M  CHG  2  11   1  13  -1
M  END
> <chembl_id>
CHEMBL2312205

> <chembl_pref_name>
None

> <s_m_source_file>
sdf/inactives_sanitized.sdf

> <i_m_source_file_index>
254

> <i_lp_mmshare_version>
49012

> <i_m_ct_stereo_status>
1

> <i_f3d_flags>
0

> <s_epik_input>
bjFbY0hdW2NIXVtjSF1jKGMxMiljKFtOK10oPU8pW08tXSlbY0hdW2NIXWMyTjNbQ0gyXVtDSDJdW0NIXShbQ0gyXVtDSDJdMylDKD1PKU9bQ0gyXVtDSDNd

> <s_epik_cmdline>
J2VwaWtfcHl0aG9uJywgJy1waHQnLCAnMC41JywgJy1waCcsICc3LjUnLCAnLW50JywgJy1tYScsICcyMDAnLCAnLWltYWUnLCAnPGluZmlsZS5tYWU+JywgJy1vbWFlJywgJzxvdXRmaWxlLm1hZT4n

> <r_lp_tautomer_probability>
1

> <r_epik_Ionization_Penalty>
  0.0000

> <r_epik_Ionization_Penalty_Charging>
  0.0000

> <r_epik_Ionization_Penalty_Neutral>
  0.0000

> <r_epik_State_Penalty>
 -0.0000

> <r_epik_Charging_Adjusted_Penalty>
0

> <i_epik_Tot_Q>
0

> <i_epik_Tot_abs_Q>
2

> <s_epik_Chemistry_Notes>
This compound has an ester and may undergo hydrolysis at high or low pH.

> <s_lp_Force_Field>
OPLS3e

> <r_lp_Energy>
42.751548

> <b_lp_Chiralities_Consistent>
1

> <s_lp_Variant>
sdf/inactives_sanitized.sdf:254-1

$$$$
sdf/inactives_sanitized.sdf:255
                    3D
 Schrodinger Suite 2020-1.
 49 52  0  0  1  0            999 V2000
   -2.1296    5.2963    2.5138 C   0  0  0  0  0  0
   -2.1384    6.1017    1.3844 C   0  0  0  0  0  0
   -1.7341    5.5545    0.1721 C   0  0  0  0  0  0
   -1.7394    4.0016    2.5002 N   0  0  0  0  0  0
   -1.3325    3.4333    1.3200 C   0  0  0  0  0  0
   -1.3248    4.1910    0.1020 C   0  0  0  0  0  0
   -0.8995    3.5664   -1.1092 C   0  0  0  0  0  0
   -0.4787    2.2391   -1.0800 C   0  0  0  0  0  0
   -0.4695    1.4897    0.0924 C   0  0  0  0  0  0
   -0.8999    2.0663    1.2991 C   0  0  0  0  0  0
   -0.8856    1.3704    2.3704 O   0  5  0  0  0  0
   -0.8886    4.2801   -2.3992 N   0  3  0  0  0  0
    0.1571    4.2816   -3.0411 O   0  0  0  0  0  0
   -1.9296    4.8060   -2.7794 O   0  5  0  0  0  0
    0.0069    0.0379   -0.0026 C   0  0  0  0  0  0
    1.5430   -0.1106   -0.0823 N   0  3  0  0  0  0
    1.9329   -1.5749   -0.3896 C   0  0  0  0  0  0
    3.4765   -1.6732   -0.4565 C   0  0  0  0  0  0
    4.1237   -1.2358    0.7874 N   0  0  1  0  0  0
    3.7543    0.1585    1.0782 C   0  0  0  0  0  0
    2.2268    0.3474    1.2278 C   0  0  0  0  0  0
    3.9427   -2.1819    1.8974 C   0  0  0  0  0  0
    4.8008   -1.8476    3.1111 C   0  0  0  0  0  0
    4.2033   -1.4403    4.3095 C   0  0  0  0  0  0
    5.0245   -1.1359    5.3970 C   0  0  0  0  0  0
    6.3787   -1.2165    5.3455 N   0  0  0  0  0  0
    6.9441   -1.6120    4.1765 C   0  0  0  0  0  0
    6.1964   -1.9346    3.0424 C   0  0  0  0  0  0
   -2.4389    5.6913    3.4702 H   0  0  0  0  0  0
   -2.4515    7.1335    1.4456 H   0  0  0  0  0  0
   -1.7286    6.1769   -0.7097 H   0  0  0  0  0  0
   -0.1528    1.7758   -2.0010 H   0  0  0  0  0  0
   -0.3126   -0.5852    0.8347 H   0  0  0  0  0  0
   -0.3717   -0.4231   -0.9168 H   0  0  0  0  0  0
    1.4891   -2.2074    0.3813 H   0  0  0  0  0  0
    1.4806   -1.8146   -1.3527 H   0  0  0  0  0  0
    3.7719   -2.6998   -0.6778 H   0  0  0  0  0  0
    3.8543   -1.0721   -1.2852 H   0  0  0  0  0  0
    4.2573    0.4974    1.9843 H   0  0  0  0  0  0
    4.1317    0.7993    0.2796 H   0  0  0  0  0  0
    1.9769    1.4009    1.3549 H   0  0  0  0  0  0
    1.7943   -0.2235    2.0511 H   0  0  0  0  0  0
    2.8945   -2.2483    2.1903 H   0  0  0  0  0  0
    4.2328   -3.1793    1.5632 H   0  0  0  0  0  0
    3.1297   -1.3585    4.3969 H   0  0  0  0  0  0
    4.5974   -0.8161    6.3361 H   0  0  0  0  0  0
    8.0227   -1.6666    4.1577 H   0  0  0  0  0  0
    6.6890   -2.2415    2.1313 H   0  0  0  0  0  0
    1.8887    0.4694   -0.8338 H   0  0  0  0  0  0
  1  2  2  0  0  0
  1  4  1  0  0  0
  1 29  1  0  0  0
  2  3  1  0  0  0
  2 30  1  0  0  0
  3  6  2  0  0  0
  3 31  1  0  0  0
  4  5  2  0  0  0
  5  6  1  0  0  0
  5 10  1  0  0  0
  6  7  1  0  0  0
  7  8  2  0  0  0
  7 12  1  0  0  0
  8  9  1  0  0  0
  8 32  1  0  0  0
  9 10  2  0  0  0
  9 15  1  0  0  0
 10 11  1  0  0  0
 12 13  2  0  0  0
 12 14  1  0  0  0
 15 16  1  0  0  0
 15 33  1  0  0  0
 15 34  1  0  0  0
 16 17  1  0  0  0
 16 21  1  0  0  0
 16 49  1  0  0  0
 17 18  1  0  0  0
 17 35  1  0  0  0
 17 36  1  0  0  0
 18 19  1  0  0  0
 18 37  1  0  0  0
 18 38  1  0  0  0
 19 20  1  0  0  0
 19 22  1  0  0  0
 20 21  1  0  0  0
 20 39  1  0  0  0
 20 40  1  0  0  0
 21 41  1  0  0  0
 21 42  1  0  0  0
 22 23  1  0  0  0
 22 43  1  0  0  0
 22 44  1  0  0  0
 23 24  2  0  0  0
 23 28  1  0  0  0
 24 25  1  0  0  0
 24 45  1  0  0  0
 25 26  2  0  0  0
 25 46  1  0  0  0
 26 27  1  0  0  0
 27 28  2  0  0  0
 27 47  1  0  0  0
 28 48  1  0  0  0
M  CHG  4  11  -1  12   1  14  -1  16   1
M  END
> <chembl_id>
CHEMBL2312211

> <chembl_pref_name>
None

> <s_m_source_file>
sdf/inactives_sanitized.sdf

> <i_m_source_file_index>
255

> <i_lp_mmshare_version>
49012

> <i_m_ct_stereo_status>
1

> <i_f3d_flags>
0

> <s_epik_input>
bjFbY0hdW2NIXVtjSF1jKGMxMiljKFtOK10oPU8pW08tXSlbY0hdYyhjMltPSF0pW0NIMl1OM1tDSDJdW0NIMl1OKFtDSDJdW0NIMl0zKVtDSDJdYzRbY0hdW2NIXW5bY0hdW2NIXTQ=

> <s_epik_cmdline>
J2VwaWtfcHl0aG9uJywgJy1waHQnLCAnMC41JywgJy1waCcsICc3LjUnLCAnLW50JywgJy1tYScsICcyMDAnLCAnLWltYWUnLCAnPGluZmlsZS5tYWU+JywgJy1vbWFlJywgJzxvdXRmaWxlLm1hZT4n

> <r_epik_Ionization_Penalty>
  0.0871

> <r_epik_Ionization_Penalty_Charging>
  0.0726

> <r_epik_Ionization_Penalty_Neutral>
  0.0144

> <r_epik_State_Penalty>
  0.2572

> <r_epik_Charging_Adjusted_Penalty>
0.32978927833867

> <i_epik_Tot_Q>
0

> <i_epik_Tot_abs_Q>
4

> <s_lp_Force_Field>
OPLS3e

> <r_lp_Energy>
62.944317

> <b_lp_Chiralities_Consistent>
1

> <s_lp_Variant>
sdf/inactives_sanitized.sdf:255-1

$$$$
sdf/inactives_sanitized.sdf:255
                    3D
 Schrodinger Suite 2020-1.
 49 52  0  0  1  0            999 V2000
   -2.6301    3.9799   -2.8657 C   0  0  0  0  0  0
   -2.4253    5.2105   -2.2594 C   0  0  0  0  0  0
   -1.8052    5.2463   -1.0158 C   0  0  0  0  0  0
   -2.2509    2.8063   -2.3114 N   0  0  0  0  0  0
   -1.6345    2.8081   -1.0858 C   0  0  0  0  0  0
   -1.3965    4.0361   -0.3834 C   0  0  0  0  0  0
   -0.7566    4.0011    0.8922 C   0  0  0  0  0  0
   -0.3547    2.7761    1.4193 C   0  0  0  0  0  0
   -0.5699    1.5740    0.7509 C   0  0  0  0  0  0
   -1.2141    1.5696   -0.4978 C   0  0  0  0  0  0
   -1.4094    0.4620   -1.1044 O   0  5  0  0  0  0
   -0.5043    5.2227    1.6780 N   0  3  0  0  0  0
    0.6421    5.4249    2.0660 O   0  0  0  0  0  0
   -1.4554    5.9553    1.9315 O   0  5  0  0  0  0
   -0.0876    0.2877    1.4316 C   0  0  0  0  0  0
    1.3740    0.1392    1.3921 N   0  0  1  0  0  0
    1.8689   -0.9496    2.2444 C   0  0  0  0  0  0
    1.5394   -2.3498    1.6721 C   0  0  0  0  0  0
    2.1570   -2.4667    0.2580 N   0  3  0  0  0  0
    1.6313   -1.3186   -0.6342 C   0  0  0  0  0  0
    1.9629    0.0296    0.0483 C   0  0  0  0  0  0
    1.8457   -3.8363   -0.3868 C   0  0  0  0  0  0
    2.4962   -5.0176    0.3161 C   0  0  0  0  0  0
    1.7380   -5.8680    1.1294 C   0  0  0  0  0  0
    2.3745   -6.9477    1.7451 C   0  0  0  0  0  0
    3.6964   -7.2135    1.5867 N   0  0  0  0  0  0
    4.4173   -6.3842    0.7896 C   0  0  0  0  0  0
    3.8589   -5.2827    0.1377 C   0  0  0  0  0  0
   -3.1093    3.9187   -3.8317 H   0  0  0  0  0  0
   -2.7396    6.1228   -2.7447 H   0  0  0  0  0  0
   -1.6324    6.2002   -0.5413 H   0  0  0  0  0  0
    0.1357    2.7581    2.3828 H   0  0  0  0  0  0
   -0.4059    0.3360    2.4744 H   0  0  0  0  0  0
   -0.5825   -0.5897    1.0157 H   0  0  0  0  0  0
    2.9471   -0.8404    2.3716 H   0  0  0  0  0  0
    1.4420   -0.8504    3.2435 H   0  0  0  0  0  0
    1.9986   -3.1340    2.2744 H   0  0  0  0  0  0
    0.4690   -2.5443    1.5874 H   0  0  0  0  0  0
    2.1462   -1.4126   -1.5910 H   0  0  0  0  0  0
    0.5630   -1.4787   -0.7866 H   0  0  0  0  0  0
    1.6193    0.8535   -0.5778 H   0  0  0  0  0  0
    3.0444    0.1540    0.1241 H   0  0  0  0  0  0
    0.7570   -3.9188   -0.4141 H   0  0  0  0  0  0
    2.2056   -3.7641   -1.4149 H   0  0  0  0  0  0
    0.6824   -5.6973    1.2842 H   0  0  0  0  0  0
    1.8211   -7.6234    2.3810 H   0  0  0  0  0  0
    5.4659   -6.6177    0.6759 H   0  0  0  0  0  0
    4.4718   -4.6509   -0.4889 H   0  0  0  0  0  0
    3.1581   -2.3616    0.3425 H   0  0  0  0  0  0
  1  2  2  0  0  0
  1  4  1  0  0  0
  1 29  1  0  0  0
  2  3  1  0  0  0
  2 30  1  0  0  0
  3  6  2  0  0  0
  3 31  1  0  0  0
  4  5  2  0  0  0
  5  6  1  0  0  0
  5 10  1  0  0  0
  6  7  1  0  0  0
  7  8  2  0  0  0
  7 12  1  0  0  0
  8  9  1  0  0  0
  8 32  1  0  0  0
  9 10  2  0  0  0
  9 15  1  0  0  0
 10 11  1  0  0  0
 12 13  2  0  0  0
 12 14  1  0  0  0
 15 16  1  0  0  0
 15 33  1  0  0  0
 15 34  1  0  0  0
 16 17  1  0  0  0
 16 21  1  0  0  0
 17 18  1  0  0  0
 17 35  1  0  0  0
 17 36  1  0  0  0
 18 19  1  0  0  0
 18 37  1  0  0  0
 18 38  1  0  0  0
 19 20  1  0  0  0
 19 22  1  0  0  0
 19 49  1  0  0  0
 20 21  1  0  0  0
 20 39  1  0  0  0
 20 40  1  0  0  0
 21 41  1  0  0  0
 21 42  1  0  0  0
 22 23  1  0  0  0
 22 43  1  0  0  0
 22 44  1  0  0  0
 23 24  2  0  0  0
 23 28  1  0  0  0
 24 25  1  0  0  0
 24 45  1  0  0  0
 25 26  2  0  0  0
 25 46  1  0  0  0
 26 27  1  0  0  0
 27 28  2  0  0  0
 27 47  1  0  0  0
 28 48  1  0  0  0
M  CHG  4  11  -1  12   1  14  -1  19   1
M  END
> <chembl_id>
CHEMBL2312211

> <chembl_pref_name>
None

> <s_m_source_file>
sdf/inactives_sanitized.sdf

> <i_m_source_file_index>
255

> <i_lp_mmshare_version>
49012

> <i_m_ct_stereo_status>
1

> <i_f3d_flags>
0

> <s_epik_input>
bjFbY0hdW2NIXVtjSF1jKGMxMiljKFtOK10oPU8pW08tXSlbY0hdYyhjMltPSF0pW0NIMl1OM1tDSDJdW0NIMl1OKFtDSDJdW0NIMl0zKVtDSDJdYzRbY0hdW2NIXW5bY0hdW2NIXTQ=

> <s_epik_cmdline>
J2VwaWtfcHl0aG9uJywgJy1waHQnLCAnMC41JywgJy1waCcsICc3LjUnLCAnLW50JywgJy1tYScsICcyMDAnLCAnLWltYWUnLCAnPGluZmlsZS5tYWU+JywgJy1vbWFlJywgJzxvdXRmaWxlLm1hZT4n

> <r_epik_Ionization_Penalty>
  0.1358

> <r_epik_Ionization_Penalty_Charging>
  0.1238

> <r_epik_Ionization_Penalty_Neutral>
  0.0119

> <r_epik_State_Penalty>
  0.6184

> <r_epik_Charging_Adjusted_Penalty>
0.742267356119387

> <i_epik_Tot_Q>
0

> <i_epik_Tot_abs_Q>
4

> <s_lp_Force_Field>
OPLS3e

> <r_lp_Energy>
61.807884

> <b_lp_Chiralities_Consistent>
1

> <s_lp_Variant>
sdf/inactives_sanitized.sdf:255-2

$$$$
sdf/inactives_sanitized.sdf:256
                    3D
 Schrodinger Suite 2020-1.
 64 66  0  0  1  0            999 V2000
    2.7451   -3.7582   -2.1224 C   0  0  0  0  0  0
    3.3430   -3.4623   -0.7281 C   0  0  0  0  0  0
    3.3762   -1.9355   -0.3991 C   0  0  0  0  0  0
    4.2853   -1.3041   -1.5170 C   0  0  0  0  0  0
    3.7043   -1.5248   -2.9313 C   0  0  0  0  0  0
    3.5246   -3.0264   -3.2339 C   0  0  0  0  0  0
   -1.7602    1.6385    0.2033 C   0  0  0  0  0  0
   -2.6875    0.5864    0.1404 C   0  0  0  0  0  0
   -2.1925   -0.7038   -0.1007 C   0  0  0  0  0  0
   -0.8275   -0.9413   -0.2353 C   0  0  0  0  0  0
    0.0940    0.1116   -0.1441 C   0  0  0  0  0  0
   -0.3943    1.4053    0.0717 C   0  0  0  0  0  0
    1.5861   -0.1168   -0.2855 C   0  0  0  0  0  0
    1.9953   -1.4042   -0.3193 N   0  0  0  0  0  0
    2.3623    0.8377   -0.3536 O   0  0  0  0  0  0
    4.0690   -1.8502    1.0063 C   0  0  0  0  0  0
    5.4127   -1.7714    1.0698 N   0  0  0  0  0  0
    3.3863   -1.9022    2.0326 O   0  0  0  0  0  0
    6.1897   -1.7534    2.3064 C   0  0  0  0  0  0
   -4.0658    0.8131    0.2465 N   0  0  0  0  0  0
    6.1128   -3.0253    3.0464 C   0  0  0  0  0  0
    6.0526   -4.0242    3.6271 N   0  0  0  0  0  0
   -4.9556   -0.1593    0.9134 C   0  0  0  0  0  0
   -5.0416    0.0685    2.4400 C   0  0  0  0  0  0
   -5.6095    1.4815    2.7015 N   0  3  0  0  0  0
   -4.7085    2.5103    1.9854 C   0  0  0  0  0  0
   -4.6465    2.1492    0.4847 C   0  0  0  0  0  0
   -5.6998    1.8150    4.2103 C   0  0  0  0  0  0
   -6.7437    0.9415    4.9335 C   0  0  0  0  0  0
   -8.1546    1.0292    4.3320 C   0  0  0  0  0  0
    1.6973   -3.4552   -2.1514 H   0  0  0  0  0  0
    2.7539   -4.8324   -2.3112 H   0  0  0  0  0  0
    4.3135   -3.9454   -0.5912 H   0  0  0  0  0  0
    2.6862   -3.9650   -0.0141 H   0  0  0  0  0  0
    4.3506   -0.2250   -1.3825 H   0  0  0  0  0  0
    5.3185   -1.6526   -1.4741 H   0  0  0  0  0  0
    2.7444   -1.0149   -3.0243 H   0  0  0  0  0  0
    4.3594   -1.0735   -3.6775 H   0  0  0  0  0  0
    4.5069   -3.4883   -3.3449 H   0  0  0  0  0  0
    3.0194   -3.1562   -4.1917 H   0  0  0  0  0  0
   -2.0716    2.6573    0.3725 H   0  0  0  0  0  0
   -2.8542   -1.5492   -0.2066 H   0  0  0  0  0  0
   -0.5054   -1.9558   -0.4213 H   0  0  0  0  0  0
    0.2790    2.2483    0.1409 H   0  0  0  0  0  0
    1.3253   -2.0675    0.0412 H   0  0  0  0  0  0
    5.9398   -1.7946    0.2091 H   0  0  0  0  0  0
    7.2358   -1.5655    2.0656 H   0  0  0  0  0  0
    5.8605   -0.9435    2.9593 H   0  0  0  0  0  0
   -5.9535   -0.0786    0.4781 H   0  0  0  0  0  0
   -4.6582   -1.1874    0.7180 H   0  0  0  0  0  0
   -5.7304   -0.6421    2.8955 H   0  0  0  0  0  0
   -4.0705    0.0025    2.9345 H   0  0  0  0  0  0
   -5.1675    3.4877    2.1406 H   0  0  0  0  0  0
   -3.7290    2.4880    2.4676 H   0  0  0  0  0  0
   -4.1132    2.9141   -0.0792 H   0  0  0  0  0  0
   -5.6557    2.1703    0.0689 H   0  0  0  0  0  0
   -4.6951    1.6954    4.6197 H   0  0  0  0  0  0
   -5.9842    2.8674    4.2579 H   0  0  0  0  0  0
   -6.4173   -0.0978    4.9663 H   0  0  0  0  0  0
   -6.7906    1.2589    5.9758 H   0  0  0  0  0  0
   -8.8623    0.4430    4.9191 H   0  0  0  0  0  0
   -8.1823    0.6451    3.3118 H   0  0  0  0  0  0
   -8.5148    2.0583    4.3139 H   0  0  0  0  0  0
   -6.5319    1.5392    2.2932 H   0  0  0  0  0  0
  1  6  1  0  0  0
  1  2  1  0  0  0
  1 31  1  0  0  0
  1 32  1  0  0  0
  2  3  1  0  0  0
  2 33  1  0  0  0
  2 34  1  0  0  0
  3 14  1  0  0  0
  3 16  1  0  0  0
  3  4  1  0  0  0
  4  5  1  0  0  0
  4 35  1  0  0  0
  4 36  1  0  0  0
  5  6  1  0  0  0
  5 37  1  0  0  0
  5 38  1  0  0  0
  6 39  1  0  0  0
  6 40  1  0  0  0
  7  8  2  0  0  0
  7 12  1  0  0  0
  7 41  1  0  0  0
  8  9  1  0  0  0
  8 20  1  0  0  0
  9 10  2  0  0  0
  9 42  1  0  0  0
 10 11  1  0  0  0
 10 43  1  0  0  0
 11 12  2  0  0  0
 11 13  1  0  0  0
 12 44  1  0  0  0
 13 15  2  0  0  0
 13 14  1  0  0  0
 14 45  1  0  0  0
 16 17  1  0  0  0
 16 18  2  0  0  0
 17 19  1  0  0  0
 17 46  1  0  0  0
 19 21  1  0  0  0
 19 47  1  0  0  0
 19 48  1  0  0  0
 20 23  1  0  0  0
 20 27  1  0  0  0
 21 22  3  0  0  0
 23 24  1  0  0  0
 23 49  1  0  0  0
 23 50  1  0  0  0
 24 25  1  0  0  0
 24 51  1  0  0  0
 24 52  1  0  0  0
 25 26  1  0  0  0
 25 28  1  0  0  0
 25 64  1  0  0  0
 26 27  1  0  0  0
 26 53  1  0  0  0
 26 54  1  0  0  0
 27 55  1  0  0  0
 27 56  1  0  0  0
 28 29  1  0  0  0
 28 57  1  0  0  0
 28 58  1  0  0  0
 29 30  1  0  0  0
 29 59  1  0  0  0
 29 60  1  0  0  0
 30 61  1  0  0  0
 30 62  1  0  0  0
 30 63  1  0  0  0
M  CHG  1  25   1
M  END
> <chembl_id>
CHEMBL371064

> <chembl_pref_name>
BALICATIB

> <s_m_source_file>
sdf/inactives_sanitized.sdf

> <i_m_source_file_index>
256

> <i_lp_mmshare_version>
49012

> <i_m_ct_stereo_status>
1

> <i_f3d_flags>
0

> <s_epik_input>
W0NIMl0xW0NIMl1bQ0gyXVtDSDJdW0NIMl1DMShDKD1PKVtOSF1bQ0gyXUMjTilbTkhdQyg9TyljKFtjSF1bY0hdMilbY0hdW2NIXWMyTjNbQ0gyXVtDSDJdTihbQ0gyXVtDSDJdMylbQ0gyXVtDSDJdW0NIM10=

> <s_epik_cmdline>
J2VwaWtfcHl0aG9uJywgJy1waHQnLCAnMC41JywgJy1waCcsICc3LjUnLCAnLW50JywgJy1tYScsICcyMDAnLCAnLWltYWUnLCAnPGluZmlsZS5tYWU+JywgJy1vbWFlJywgJzxvdXRmaWxlLm1hZT4n

> <r_epik_Ionization_Penalty>
  0.2549

> <r_epik_Ionization_Penalty_Charging>
  0.2549

> <r_epik_Ionization_Penalty_Neutral>
  0.0000

> <r_epik_State_Penalty>
  0.2464

> <r_epik_Charging_Adjusted_Penalty>
0.501333196747517

> <i_epik_Tot_Q>
1

> <i_epik_Tot_abs_Q>
1

> <s_lp_Force_Field>
OPLS3e

> <r_lp_Energy>
60.362683

> <b_lp_Chiralities_Consistent>
1

> <s_lp_Variant>
sdf/inactives_sanitized.sdf:256-1

$$$$
sdf/inactives_sanitized.sdf:256
                    3D
 Schrodinger Suite 2020-1.
 63 65  0  0  1  0            999 V2000
    5.6753   -1.4888   -1.3125 C   0  0  0  0  0  0
    4.1562   -1.2372   -1.3830 C   0  0  0  0  0  0
    3.2988   -1.7868   -0.1923 C   0  0  0  0  0  0
    4.0413   -1.5685    1.1856 C   0  0  0  0  0  0
    5.5803   -1.7249    1.2079 C   0  0  0  0  0  0
    6.2646   -1.0242    0.0264 C   0  0  0  0  0  0
   -1.8762    1.6866    0.5038 C   0  0  0  0  0  0
   -2.7413    0.7801   -0.1218 C   0  0  0  0  0  0
   -2.1970   -0.3656   -0.7131 C   0  0  0  0  0  0
   -0.8274   -0.6086   -0.6688 C   0  0  0  0  0  0
    0.0372    0.2934   -0.0300 C   0  0  0  0  0  0
   -0.5054    1.4485    0.5466 C   0  0  0  0  0  0
    1.5289    0.0433    0.0504 C   0  0  0  0  0  0
    1.9327   -1.2189   -0.2086 N   0  0  0  0  0  0
    2.3011    0.9510    0.3641 O   0  0  0  0  0  0
    3.1082   -3.3215   -0.4660 C   0  0  0  0  0  0
    3.9555   -4.1998    0.1036 N   0  0  0  0  0  0
    2.2321   -3.7099   -1.2456 O   0  0  0  0  0  0
    3.9484   -5.6417   -0.1280 C   0  0  0  0  0  0
   -4.1148    1.0008   -0.1571 N   0  0  0  0  0  0
    4.3177   -5.9984   -1.5091 C   0  0  0  0  0  0
    4.6082   -6.2782   -2.5936 N   0  0  0  0  0  0
   -4.8148    1.8385    0.8321 C   0  0  0  0  0  0
   -6.3056    1.4704    0.9997 C   0  0  0  0  0  0
   -7.0062    1.5435   -0.2865 N   0  0  0  0  0  0
   -6.3898    0.5477   -1.1666 C   0  0  0  0  0  0
   -4.8938    0.8625   -1.4007 C   0  0  0  0  0  0
   -8.4438    1.2780   -0.1355 C   0  0  0  0  0  0
   -9.2821    2.5690    0.0010 C   0  0  0  0  0  0
   -8.9870    3.4560    1.2205 C   0  0  0  0  0  0
    6.1719   -0.9711   -2.1339 H   0  0  0  0  0  0
    5.8816   -2.5502   -1.4570 H   0  0  0  0  0  0
    3.7384   -1.5428   -2.3448 H   0  0  0  0  0  0
    3.9951   -0.1601   -1.4480 H   0  0  0  0  0  0
    3.8416   -0.5572    1.5335 H   0  0  0  0  0  0
    3.5526   -2.1309    1.9833 H   0  0  0  0  0  0
    5.9730   -1.3279    2.1450 H   0  0  0  0  0  0
    5.8542   -2.7794    1.2059 H   0  0  0  0  0  0
    7.3372   -1.2206    0.0490 H   0  0  0  0  0  0
    6.1493    0.0566    0.1232 H   0  0  0  0  0  0
   -2.2561    2.5884    0.9611 H   0  0  0  0  0  0
   -2.8339   -1.0917   -1.1968 H   0  0  0  0  0  0
   -0.4554   -1.5096   -1.1351 H   0  0  0  0  0  0
    0.1271    2.1707    1.0433 H   0  0  0  0  0  0
    1.2721   -1.7728   -0.7344 H   0  0  0  0  0  0
    4.7037   -3.8418    0.6793 H   0  0  0  0  0  0
    4.6659   -6.1116    0.5446 H   0  0  0  0  0  0
    2.9693   -6.0668    0.0985 H   0  0  0  0  0  0
   -4.3179    1.7660    1.8003 H   0  0  0  0  0  0
   -4.7461    2.8801    0.5140 H   0  0  0  0  0  0
   -6.3940    0.4699    1.4287 H   0  0  0  0  0  0
   -6.7541    2.1483    1.7232 H   0  0  0  0  0  0
   -6.5051   -0.4579   -0.7564 H   0  0  0  0  0  0
   -6.9009    0.5514   -2.1306 H   0  0  0  0  0  0
   -4.8252    1.8072   -1.9425 H   0  0  0  0  0  0
   -4.4644    0.1043   -2.0546 H   0  0  0  0  0  0
   -8.8247    0.7408   -1.0064 H   0  0  0  0  0  0
   -8.6239    0.6189    0.7164 H   0  0  0  0  0  0
   -9.2154    3.1515   -0.9189 H   0  0  0  0  0  0
  -10.3290    2.2696    0.0634 H   0  0  0  0  0  0
   -9.7177    4.2618    1.2967 H   0  0  0  0  0  0
   -8.0037    3.9209    1.1472 H   0  0  0  0  0  0
   -9.0295    2.8842    2.1482 H   0  0  0  0  0  0
  1  6  1  0  0  0
  1  2  1  0  0  0
  1 31  1  0  0  0
  1 32  1  0  0  0
  2  3  1  0  0  0
  2 33  1  0  0  0
  2 34  1  0  0  0
  3 14  1  0  0  0
  3 16  1  0  0  0
  3  4  1  0  0  0
  4  5  1  0  0  0
  4 35  1  0  0  0
  4 36  1  0  0  0
  5  6  1  0  0  0
  5 37  1  0  0  0
  5 38  1  0  0  0
  6 39  1  0  0  0
  6 40  1  0  0  0
  7  8  2  0  0  0
  7 12  1  0  0  0
  7 41  1  0  0  0
  8  9  1  0  0  0
  8 20  1  0  0  0
  9 10  2  0  0  0
  9 42  1  0  0  0
 10 11  1  0  0  0
 10 43  1  0  0  0
 11 12  2  0  0  0
 11 13  1  0  0  0
 12 44  1  0  0  0
 13 15  2  0  0  0
 13 14  1  0  0  0
 14 45  1  0  0  0
 16 17  1  0  0  0
 16 18  2  0  0  0
 17 19  1  0  0  0
 17 46  1  0  0  0
 19 21  1  0  0  0
 19 47  1  0  0  0
 19 48  1  0  0  0
 20 23  1  0  0  0
 20 27  1  0  0  0
 21 22  3  0  0  0
 23 24  1  0  0  0
 23 49  1  0  0  0
 23 50  1  0  0  0
 24 25  1  0  0  0
 24 51  1  0  0  0
 24 52  1  0  0  0
 25 26  1  0  0  0
 25 28  1  0  0  0
 26 27  1  0  0  0
 26 53  1  0  0  0
 26 54  1  0  0  0
 27 55  1  0  0  0
 27 56  1  0  0  0
 28 29  1  0  0  0
 28 57  1  0  0  0
 28 58  1  0  0  0
 29 30  1  0  0  0
 29 59  1  0  0  0
 29 60  1  0  0  0
 30 61  1  0  0  0
 30 62  1  0  0  0
 30 63  1  0  0  0
M  END
> <chembl_id>
CHEMBL371064

> <chembl_pref_name>
BALICATIB

> <s_m_source_file>
sdf/inactives_sanitized.sdf

> <i_m_source_file_index>
256

> <i_lp_mmshare_version>
49012

> <i_m_ct_stereo_status>
1

> <i_f3d_flags>
0

> <s_epik_input>
W0NIMl0xW0NIMl1bQ0gyXVtDSDJdW0NIMl1DMShDKD1PKVtOSF1bQ0gyXUMjTilbTkhdQyg9TyljKFtjSF1bY0hdMilbY0hdW2NIXWMyTjNbQ0gyXVtDSDJdTihbQ0gyXVtDSDJdMylbQ0gyXVtDSDJdW0NIM10=

> <s_epik_cmdline>
J2VwaWtfcHl0aG9uJywgJy1waHQnLCAnMC41JywgJy1waCcsICc3LjUnLCAnLW50JywgJy1tYScsICcyMDAnLCAnLWltYWUnLCAnPGluZmlsZS5tYWU+JywgJy1vbWFlJywgJzxvdXRmaWxlLm1hZT4n

> <r_epik_Ionization_Penalty>
  0.6226

> <r_epik_Ionization_Penalty_Charging>
  0.0000

> <r_epik_Ionization_Penalty_Neutral>
  0.6226

> <r_epik_State_Penalty>
  0.6387

> <r_epik_Charging_Adjusted_Penalty>
0.638741073523078

> <i_epik_Tot_Q>
0

> <i_epik_Tot_abs_Q>
0

> <s_lp_Force_Field>
OPLS3e

> <r_lp_Energy>
55.798802

> <b_lp_Chiralities_Consistent>
1

> <s_lp_Variant>
sdf/inactives_sanitized.sdf:256-2

$$$$
sdf/inactives_sanitized.sdf:257
                    3D
 Schrodinger Suite 2020-1.
 70 71  0  0  1  0            999 V2000
   -2.7819    0.9354    2.2772 C   0  0  0  0  0  0
   -2.9026    1.3848    1.0119 N   0  0  0  0  0  0
   -2.1181   -0.0610    2.5751 O   0  0  0  0  0  0
   -2.2733    0.8074   -0.1815 C   0  0  2  0  0  0
   -0.7395    0.9731   -0.1537 C   0  0  0  0  0  0
   -0.2463    2.1022   -0.1817 O   0  0  0  0  0  0
   -0.0235   -0.1627   -0.1139 N   0  0  0  0  0  0
    1.4409   -0.2309   -0.0919 C   0  0  2  0  0  0
    2.0445   -0.0228   -1.4988 C   0  0  0  0  0  0
    3.1991    0.6462   -1.5610 N   0  0  0  0  0  0
    1.4905   -0.4891   -2.4941 O   0  0  0  0  0  0
   -2.8920    1.4235   -1.4619 C   0  0  0  0  0  0
    1.8722   -1.5930    0.5060 C   0  0  0  0  0  0
   -4.3903    1.2162   -1.6195 C   0  0  0  0  0  0
   -4.8862   -0.0003   -2.1346 C   0  0  0  0  0  0
   -6.2555   -0.2265   -2.1851 C   0  0  0  0  0  0
   -7.1412    0.7292   -1.7028 C   0  0  0  0  0  0
   -6.6662    1.9143   -1.1551 C   0  0  0  0  0  0
   -5.3007    2.1599   -1.0963 C   0  0  0  0  0  0
    1.5204   -1.7489    1.9977 C   0  0  0  0  0  0
    1.9792   -3.0939    2.5786 C   0  0  0  0  0  0
    1.6115   -3.2464    4.0612 C   0  0  0  0  0  0
    2.0568   -4.5456    4.5938 N   0  3  0  0  0  0
   -3.5444    1.7050    3.3346 C   0  0  0  0  0  0
   -3.9860    3.0174    3.1117 C   0  0  0  0  0  0
   -4.6848    3.7084    4.0974 C   0  0  0  0  0  0
   -4.9627    3.1100    5.3355 C   0  0  0  0  0  0
   -4.5152    1.7997    5.5542 C   0  0  0  0  0  0
   -3.8147    1.1072    4.5710 C   0  0  0  0  0  0
   -5.7405    3.8468    6.4566 C   0  0  0  0  0  0
   -7.0314    3.0621    6.7993 C   0  0  0  0  0  0
   -6.1637    5.2887    6.0657 C   0  0  0  0  0  0
   -4.8563    3.9521    7.7243 C   0  0  0  0  0  0
   -3.4722    2.2006    0.8436 H   0  0  0  0  0  0
   -2.5148   -0.2584   -0.1810 H   0  0  0  0  0  0
   -0.5060   -1.0494   -0.1039 H   0  0  0  0  0  0
    1.8091    0.5633    0.5623 H   0  0  0  0  0  0
    3.6268    1.0106   -0.7224 H   0  0  0  0  0  0
    3.6455    0.8002   -2.4534 H   0  0  0  0  0  0
   -2.6952    2.4969   -1.4981 H   0  0  0  0  0  0
   -2.4045    1.0035   -2.3439 H   0  0  0  0  0  0
    1.4235   -2.4113   -0.0610 H   0  0  0  0  0  0
    2.9519   -1.7153    0.3998 H   0  0  0  0  0  0
   -4.2036   -0.7571   -2.4926 H   0  0  0  0  0  0
   -6.6327   -1.1530   -2.5926 H   0  0  0  0  0  0
   -8.2048    0.5444   -1.7419 H   0  0  0  0  0  0
   -7.3613    2.6437   -0.7659 H   0  0  0  0  0  0
   -4.9397    3.0751   -0.6502 H   0  0  0  0  0  0
    1.9740   -0.9341    2.5635 H   0  0  0  0  0  0
    0.4425   -1.6502    2.1336 H   0  0  0  0  0  0
    1.5317   -3.9068    2.0047 H   0  0  0  0  0  0
    3.0592   -3.1911    2.4574 H   0  0  0  0  0  0
    2.0697   -2.4504    4.6495 H   0  0  0  0  0  0
    0.5320   -3.1647    4.1940 H   0  0  0  0  0  0
    1.8038   -4.6160    5.5694 H   0  0  0  0  0  0
    3.0598   -4.6235    4.5016 H   0  0  0  0  0  0
   -3.7915    3.5224    2.1763 H   0  0  0  0  0  0
   -4.9998    4.7154    3.8719 H   0  0  0  0  0  0
   -4.7084    1.3040    6.4942 H   0  0  0  0  0  0
   -3.4900    0.0980    4.7825 H   0  0  0  0  0  0
   -7.6121    3.5637    7.5749 H   0  0  0  0  0  0
   -6.8187    2.0577    7.1671 H   0  0  0  0  0  0
   -7.6783    2.9587    5.9266 H   0  0  0  0  0  0
   -6.8200    5.2967    5.1940 H   0  0  0  0  0  0
   -5.3007    5.9176    5.8413 H   0  0  0  0  0  0
   -6.7087    5.7797    6.8735 H   0  0  0  0  0  0
   -5.3667    4.4870    8.5268 H   0  0  0  0  0  0
   -3.9277    4.4866    7.5189 H   0  0  0  0  0  0
   -4.5868    2.9732    8.1222 H   0  0  0  0  0  0
    1.6129   -5.2921    4.0780 H   0  0  0  0  0  0
  1  2  1  0  0  0
  1  3  2  0  0  0
  1 24  1  0  0  0
  2  4  1  0  0  0
  2 34  1  0  0  0
  4  5  1  0  0  0
  4 12  1  0  0  0
  4 35  1  0  0  0
  5  6  2  0  0  0
  5  7  1  0  0  0
  7  8  1  0  0  0
  7 36  1  0  0  0
  8  9  1  0  0  0
  8 13  1  0  0  0
  8 37  1  0  0  0
  9 10  1  0  0  0
  9 11  2  0  0  0
 10 38  1  0  0  0
 10 39  1  0  0  0
 12 14  1  0  0  0
 12 40  1  0  0  0
 12 41  1  0  0  0
 13 20  1  0  0  0
 13 42  1  0  0  0
 13 43  1  0  0  0
 14 15  2  0  0  0
 14 19  1  0  0  0
 15 16  1  0  0  0
 15 44  1  0  0  0
 16 17  2  0  0  0
 16 45  1  0  0  0
 17 18  1  0  0  0
 17 46  1  0  0  0
 18 19  2  0  0  0
 18 47  1  0  0  0
 19 48  1  0  0  0
 20 21  1  0  0  0
 20 49  1  0  0  0
 20 50  1  0  0  0
 21 22  1  0  0  0
 21 51  1  0  0  0
 21 52  1  0  0  0
 22 23  1  0  0  0
 22 53  1  0  0  0
 22 54  1  0  0  0
 23 55  1  0  0  0
 23 56  1  0  0  0
 23 70  1  0  0  0
 24 25  2  0  0  0
 24 29  1  0  0  0
 25 26  1  0  0  0
 25 57  1  0  0  0
 26 27  2  0  0  0
 26 58  1  0  0  0
 27 28  1  0  0  0
 27 30  1  0  0  0
 28 29  2  0  0  0
 28 59  1  0  0  0
 29 60  1  0  0  0
 30 31  1  0  0  0
 30 32  1  0  0  0
 30 33  1  0  0  0
 31 61  1  0  0  0
 31 62  1  0  0  0
 31 63  1  0  0  0
 32 64  1  0  0  0
 32 65  1  0  0  0
 32 66  1  0  0  0
 33 67  1  0  0  0
 33 68  1  0  0  0
 33 69  1  0  0  0
M  CHG  1  23   1
M  END
> <chembl_id>
CHEMBL2382063

> <chembl_pref_name>
None

> <i_m_ct_stereo_status>
1

> <s_m_source_file>
sdf/inactives_sanitized.sdf

> <i_m_source_file_index>
257

> <i_lp_mmshare_version>
49012

> <i_f3d_flags>
0

> <s_epik_input>
W2NIXTFbY0hdYyhDKFtDSDNdKShbQ0gzXSlbQ0gzXSlbY0hdW2NIXWMxQyg9TylbTkhdW0NAQEhdKFtDSDJdYzJbY0hdW2NIXVtjSF1bY0hdW2NIXTIpQyg9TylbTkhdW0NASF0oQyg9TylbTkgyXSlbQ0gyXVtDSDJdW0NIMl1bQ0gyXVtOSDJd

> <s_epik_cmdline>
J2VwaWtfcHl0aG9uJywgJy1waHQnLCAnMC41JywgJy1waCcsICc3LjUnLCAnLW50JywgJy1tYScsICcyMDAnLCAnLWltYWUnLCAnPGluZmlsZS5tYWU+JywgJy1vbWFlJywgJzxvdXRmaWxlLm1hZT4n

> <r_lp_tautomer_probability>
1

> <r_epik_Ionization_Penalty>
  0.0014

> <r_epik_Ionization_Penalty_Charging>
  0.0014

> <r_epik_Ionization_Penalty_Neutral>
  0.0000

> <r_epik_State_Penalty>
 -0.0000

> <r_epik_Charging_Adjusted_Penalty>
0.00140340395202934

> <i_epik_Tot_Q>
1

> <i_epik_Tot_abs_Q>
1

> <s_lp_Force_Field>
OPLS3e

> <r_lp_Energy>
29.912118

> <b_lp_Chiralities_Consistent>
1

> <s_lp_Variant>
sdf/inactives_sanitized.sdf:257-1

$$$$
sdf/inactives_sanitized.sdf:258
                    3D
 Schrodinger Suite 2020-1.
 72 74  0  0  1  0            999 V2000
    1.9405    2.3450   -5.9969 C   0  0  0  0  0  0
    1.0841    3.3374   -5.5247 C   0  0  0  0  0  0
   -0.1499    2.9841   -4.9852 C   0  0  0  0  0  0
   -0.5210    1.6392   -4.9195 C   0  0  0  0  0  0
    0.3443    0.6475   -5.3886 C   0  0  0  0  0  0
    1.5783    1.0013   -5.9280 C   0  0  0  0  0  0
   -1.8707    1.2505   -4.3265 C   0  0  0  0  0  0
   -1.7069    0.5338   -3.1032 O   0  0  0  0  0  0
   -1.3626    1.1598   -1.9569 C   0  0  0  0  0  0
   -0.9822    0.2026   -1.0238 N   0  0  0  0  0  0
   -1.3472    2.3830   -1.8002 O   0  0  0  0  0  0
   -0.4471    0.5784    0.3019 C   0  0  2  0  0  0
    1.0763    0.8865    0.3234 C   0  0  0  0  0  0
    1.6545    0.9698    1.4081 O   0  0  0  0  0  0
    1.6945    1.0857   -0.8575 N   0  0  0  0  0  0
    3.0976    1.4669   -1.0456 C   0  0  2  0  0  0
    3.3782    2.8896   -0.5047 C   0  0  0  0  0  0
    4.4946    3.0512    0.2108 N   0  0  0  0  0  0
    2.6121    3.8170   -0.7643 O   0  0  0  0  0  0
   -0.8912   -0.4151    1.4149 C   0  0  0  0  0  0
    3.4214    1.3544   -2.5583 C   0  0  0  0  0  0
   -2.3968   -0.6922    1.4528 C   0  0  0  0  0  0
   -2.8542   -2.0070    1.5552 C   0  0  0  0  0  0
   -4.2203   -2.2725    1.5905 C   0  0  0  0  0  0
   -5.1575   -1.2319    1.5307 C   0  0  0  0  0  0
   -4.6860    0.0845    1.4392 C   0  0  0  0  0  0
   -3.3213    0.3544    1.4043 C   0  0  0  0  0  0
    4.9252    1.3961   -2.8907 C   0  0  0  0  0  0
    5.1997    1.3060   -4.3986 C   0  0  0  0  0  0
    6.6995    1.2926   -4.7243 C   0  0  0  0  0  0
    6.9327    1.2358   -6.1775 N   0  3  0  0  0  0
   -6.6248   -1.5185    1.5655 C   0  0  0  0  0  0
   -7.5225   -0.6269    2.1744 C   0  0  0  0  0  0
   -8.8916   -0.8918    2.2067 C   0  0  0  0  0  0
   -9.3898   -2.0566    1.6278 C   0  0  0  0  0  0
   -8.5172   -2.9555    1.0178 C   0  0  0  0  0  0
   -7.1479   -2.6870    0.9886 C   0  0  0  0  0  0
   -9.1305   -4.3985    0.2959 Cl  0  0  0  0  0  0
    2.8948    2.6212   -6.4197 H   0  0  0  0  0  0
    1.3744    4.3763   -5.5781 H   0  0  0  0  0  0
   -0.8130    3.7537   -4.6167 H   0  0  0  0  0  0
    0.0618   -0.3940   -5.3339 H   0  0  0  0  0  0
    2.2497    0.2382   -6.2926 H   0  0  0  0  0  0
   -2.5007    2.1304   -4.1829 H   0  0  0  0  0  0
   -2.3924    0.6125   -5.0403 H   0  0  0  0  0  0
   -1.0040   -0.7744   -1.2772 H   0  0  0  0  0  0
   -0.8988    1.5308    0.5867 H   0  0  0  0  0  0
    1.1470    1.0234   -1.7036 H   0  0  0  0  0  0
    3.7015    0.7381   -0.5001 H   0  0  0  0  0  0
    5.1009    2.2669    0.4002 H   0  0  0  0  0  0
    4.7291    3.9610    0.5803 H   0  0  0  0  0  0
   -0.3624   -1.3580    1.2607 H   0  0  0  0  0  0
   -0.5924   -0.0595    2.4026 H   0  0  0  0  0  0
    3.0217    0.4157   -2.9469 H   0  0  0  0  0  0
    2.9035    2.1414   -3.1109 H   0  0  0  0  0  0
   -2.1545   -2.8286    1.6057 H   0  0  0  0  0  0
   -4.5437   -3.2994    1.6763 H   0  0  0  0  0  0
   -5.3756    0.9139    1.3841 H   0  0  0  0  0  0
   -2.9932    1.3811    1.3385 H   0  0  0  0  0  0
    5.3654    2.3166   -2.5061 H   0  0  0  0  0  0
    5.4298    0.5768   -2.3775 H   0  0  0  0  0  0
    4.7256    0.4107   -4.8035 H   0  0  0  0  0  0
    4.7301    2.1547   -4.8971 H   0  0  0  0  0  0
    7.1816    2.1870   -4.3277 H   0  0  0  0  0  0
    7.1811    0.4326   -4.2575 H   0  0  0  0  0  0
    7.9263    1.2240   -6.3593 H   0  0  0  0  0  0
    6.5220    2.0464   -6.6188 H   0  0  0  0  0  0
   -7.1639    0.2790    2.6407 H   0  0  0  0  0  0
   -9.5653   -0.1944    2.6824 H   0  0  0  0  0  0
  -10.4505   -2.2595    1.6537 H   0  0  0  0  0  0
   -6.4925   -3.3935    0.5006 H   0  0  0  0  0  0
    6.5131    0.3985   -6.5560 H   0  0  0  0  0  0
  1  2  2  0  0  0
  1  6  1  0  0  0
  1 39  1  0  0  0
  2  3  1  0  0  0
  2 40  1  0  0  0
  3  4  2  0  0  0
  3 41  1  0  0  0
  4  5  1  0  0  0
  4  7  1  0  0  0
  5  6  2  0  0  0
  5 42  1  0  0  0
  6 43  1  0  0  0
  7  8  1  0  0  0
  7 44  1  0  0  0
  7 45  1  0  0  0
  8  9  1  0  0  0
  9 10  1  0  0  0
  9 11  2  0  0  0
 10 12  1  0  0  0
 10 46  1  0  0  0
 12 13  1  0  0  0
 12 20  1  0  0  0
 12 47  1  0  0  0
 13 14  2  0  0  0
 13 15  1  0  0  0
 15 16  1  0  0  0
 15 48  1  0  0  0
 16 17  1  0  0  0
 16 21  1  0  0  0
 16 49  1  0  0  0
 17 18  1  0  0  0
 17 19  2  0  0  0
 18 50  1  0  0  0
 18 51  1  0  0  0
 20 22  1  0  0  0
 20 52  1  0  0  0
 20 53  1  0  0  0
 21 28  1  0  0  0
 21 54  1  0  0  0
 21 55  1  0  0  0
 22 23  2  0  0  0
 22 27  1  0  0  0
 23 24  1  0  0  0
 23 56  1  0  0  0
 24 25  2  0  0  0
 24 57  1  0  0  0
 25 26  1  0  0  0
 25 32  1  0  0  0
 26 27  2  0  0  0
 26 58  1  0  0  0
 27 59  1  0  0  0
 28 29  1  0  0  0
 28 60  1  0  0  0
 28 61  1  0  0  0
 29 30  1  0  0  0
 29 62  1  0  0  0
 29 63  1  0  0  0
 30 31  1  0  0  0
 30 64  1  0  0  0
 30 65  1  0  0  0
 31 66  1  0  0  0
 31 67  1  0  0  0
 31 72  1  0  0  0
 32 33  2  0  0  0
 32 37  1  0  0  0
 33 34  1  0  0  0
 33 68  1  0  0  0
 34 35  2  0  0  0
 34 69  1  0  0  0
 35 36  1  0  0  0
 35 70  1  0  0  0
 36 37  2  0  0  0
 36 38  1  0  0  0
 37 71  1  0  0  0
M  CHG  1  31   1
M  END
> <chembl_id>
CHEMBL2382000

> <chembl_pref_name>
None

> <i_m_ct_stereo_status>
1

> <s_m_source_file>
sdf/inactives_sanitized.sdf

> <i_m_source_file_index>
258

> <i_lp_mmshare_version>
49012

> <i_f3d_flags>
0

> <s_epik_input>
W2NIXTFbY0hdW2NIXVtjSF1bY0hdYzFbQ0gyXU9DKD1PKVtOSF1bQ0BIXShDKD1PKVtOSF1bQ0BIXShDKD1PKVtOSDJdKVtDSDJdW0NIMl1bQ0gyXVtDSDJdW05IMl0pW0NIMl1jMltjSF1bY0hdYyhbY0hdW2NIXTIpLWMzW2NIXVtjSF1bY0hdYyhDbClbY0hdMw==

> <s_epik_cmdline>
J2VwaWtfcHl0aG9uJywgJy1waHQnLCAnMC41JywgJy1waCcsICc3LjUnLCAnLW50JywgJy1tYScsICcyMDAnLCAnLWltYWUnLCAnPGluZmlsZS5tYWU+JywgJy1vbWFlJywgJzxvdXRmaWxlLm1hZT4n

> <r_lp_tautomer_probability>
1

> <r_epik_Ionization_Penalty>
  0.0014

> <r_epik_Ionization_Penalty_Charging>
  0.0014

> <r_epik_Ionization_Penalty_Neutral>
  0.0000

> <r_epik_State_Penalty>
 -0.0000

> <r_epik_Charging_Adjusted_Penalty>
0.00140340395202934

> <i_epik_Tot_Q>
1

> <i_epik_Tot_abs_Q>
1

> <s_epik_Chemistry_Notes>
This compound has an ester and may undergo hydrolysis at high or low pH.

> <s_lp_Force_Field>
OPLS3e

> <r_lp_Energy>
36.988103

> <b_lp_Chiralities_Consistent>
1

> <s_lp_Variant>
sdf/inactives_sanitized.sdf:258-1

$$$$
sdf/inactives_sanitized.sdf:259
                    3D
 Schrodinger Suite 2020-1.
 59 60  0  0  1  0            999 V2000
   -3.1586   -3.7873   -6.9082 C   0  0  0  0  0  0
   -2.3426   -2.8144   -7.4814 C   0  0  0  0  0  0
   -1.8552   -1.7725   -6.6965 C   0  0  0  0  0  0
   -2.1801   -1.7084   -5.3390 C   0  0  0  0  0  0
   -3.0067   -2.6853   -4.7720 C   0  0  0  0  0  0
   -3.4940   -3.7266   -5.5574 C   0  0  0  0  0  0
   -1.6445   -0.5553   -4.5007 C   0  0  0  0  0  0
   -1.2772   -1.0025   -3.1992 O   0  0  0  0  0  0
   -0.8091   -0.1407   -2.2775 C   0  0  0  0  0  0
   -0.5805   -0.8349   -1.0949 N   0  0  0  0  0  0
   -0.6177    1.0635   -2.4702 O   0  0  0  0  0  0
   -0.0993   -0.1500    0.1150 C   0  0  2  0  0  0
    1.4371   -0.0203    0.1149 C   0  0  0  0  0  0
    2.1349   -1.0330    0.1873 O   0  0  0  0  0  0
    1.9208    1.2301    0.0379 N   0  0  0  0  0  0
    3.3408    1.5840   -0.0140 C   0  0  2  0  0  0
    3.8493    1.9003    1.4078 C   0  0  0  0  0  0
    4.9088    1.2100    1.8389 N   0  0  0  0  0  0
    3.3029    2.7737    2.0809 O   0  0  0  0  0  0
   -0.6485   -0.8505    1.3825 C   0  0  0  0  0  0
    3.5814    2.7819   -0.9673 C   0  0  0  0  0  0
   -2.1626   -0.8305    1.5223 C   0  0  0  0  0  0
   -2.9483   -1.8562    0.9533 C   0  0  0  0  0  0
   -4.3338   -1.7749    0.9959 C   0  0  0  0  0  0
   -4.9528   -0.6732    1.5732 C   0  0  0  0  0  0
   -4.1928    0.3631    2.1011 C   0  0  0  0  0  0
   -2.8058    0.3014    2.0667 C   0  0  0  0  0  0
    3.1595    2.5007   -2.4246 C   0  0  0  0  0  0
    3.3969    3.7006   -3.3510 C   0  0  0  0  0  0
    2.9424    3.3438   -4.7688 N   0  3  0  0  0  0
   -3.5364   -4.5953   -7.5174 H   0  0  0  0  0  0
   -2.0901   -2.8672   -8.5303 H   0  0  0  0  0  0
   -1.2255   -1.0181   -7.1455 H   0  0  0  0  0  0
   -3.2736   -2.6403   -3.7261 H   0  0  0  0  0  0
   -4.1301   -4.4829   -5.1214 H   0  0  0  0  0  0
   -0.7712   -0.1206   -4.9905 H   0  0  0  0  0  0
   -2.4106    0.2190   -4.4350 H   0  0  0  0  0  0
   -0.7369   -1.8318   -1.0612 H   0  0  0  0  0  0
   -0.5273    0.8569    0.1373 H   0  0  0  0  0  0
    1.2748    2.0056    0.0027 H   0  0  0  0  0  0
    3.9053    0.7364   -0.4110 H   0  0  0  0  0  0
    5.3314    0.5024    1.2558 H   0  0  0  0  0  0
    5.2868    1.3861    2.7586 H   0  0  0  0  0  0
   -0.3192   -1.8910    1.4080 H   0  0  0  0  0  0
   -0.2251   -0.3859    2.2751 H   0  0  0  0  0  0
    3.0361    3.6566   -0.6057 H   0  0  0  0  0  0
    4.6402    3.0488   -0.9563 H   0  0  0  0  0  0
   -2.4754   -2.7064    0.4835 H   0  0  0  0  0  0
   -4.9324   -2.5671    0.5708 H   0  0  0  0  0  0
   -6.0310   -0.6157    1.5996 H   0  0  0  0  0  0
   -4.6820    1.2244    2.5315 H   0  0  0  0  0  0
   -2.2224    1.1215    2.4594 H   0  0  0  0  0  0
    3.7105    1.6377   -2.8018 H   0  0  0  0  0  0
    2.1024    2.2328   -2.4610 H   0  0  0  0  0  0
    2.8072    4.5760   -3.0769 H   0  0  0  0  0  0
    4.4495    3.9693   -3.4468 H   0  0  0  0  0  0
    3.0869    4.1280   -5.3890 H   0  0  0  0  0  0
    1.9606    3.1052   -4.7695 H   0  0  0  0  0  0
    3.4686    2.5542   -5.1152 H   0  0  0  0  0  0
  1  2  2  0  0  0
  1  6  1  0  0  0
  1 31  1  0  0  0
  2  3  1  0  0  0
  2 32  1  0  0  0
  3  4  2  0  0  0
  3 33  1  0  0  0
  4  5  1  0  0  0
  4  7  1  0  0  0
  5  6  2  0  0  0
  5 34  1  0  0  0
  6 35  1  0  0  0
  7  8  1  0  0  0
  7 36  1  0  0  0
  7 37  1  0  0  0
  8  9  1  0  0  0
  9 10  1  0  0  0
  9 11  2  0  0  0
 10 12  1  0  0  0
 10 38  1  0  0  0
 12 13  1  0  0  0
 12 20  1  0  0  0
 12 39  1  0  0  0
 13 14  2  0  0  0
 13 15  1  0  0  0
 15 16  1  0  0  0
 15 40  1  0  0  0
 16 17  1  0  0  0
 16 21  1  0  0  0
 16 41  1  0  0  0
 17 18  1  0  0  0
 17 19  2  0  0  0
 18 42  1  0  0  0
 18 43  1  0  0  0
 20 22  1  0  0  0
 20 44  1  0  0  0
 20 45  1  0  0  0
 21 28  1  0  0  0
 21 46  1  0  0  0
 21 47  1  0  0  0
 22 23  2  0  0  0
 22 27  1  0  0  0
 23 24  1  0  0  0
 23 48  1  0  0  0
 24 25  2  0  0  0
 24 49  1  0  0  0
 25 26  1  0  0  0
 25 50  1  0  0  0
 26 27  2  0  0  0
 26 51  1  0  0  0
 27 52  1  0  0  0
 28 29  1  0  0  0
 28 53  1  0  0  0
 28 54  1  0  0  0
 29 30  1  0  0  0
 29 55  1  0  0  0
 29 56  1  0  0  0
 30 57  1  0  0  0
 30 58  1  0  0  0
 30 59  1  0  0  0
M  CHG  1  30   1
M  END
> <chembl_id>
CHEMBL2381991

> <chembl_pref_name>
None

> <i_m_ct_stereo_status>
1

> <s_m_source_file>
sdf/inactives_sanitized.sdf

> <i_m_source_file_index>
259

> <i_lp_mmshare_version>
49012

> <i_f3d_flags>
0

> <s_epik_input>
W2NIXTFbY0hdW2NIXVtjSF1bY0hdYzFbQ0gyXU9DKD1PKVtOSF1bQ0BIXShDKD1PKVtOSF1bQ0BIXShDKD1PKVtOSDJdKVtDSDJdW0NIMl1bQ0gyXVtOSDJdKVtDSDJdYzJbY0hdW2NIXVtjSF1bY0hdW2NIXTI=

> <s_epik_cmdline>
J2VwaWtfcHl0aG9uJywgJy1waHQnLCAnMC41JywgJy1waCcsICc3LjUnLCAnLW50JywgJy1tYScsICcyMDAnLCAnLWltYWUnLCAnPGluZmlsZS5tYWU+JywgJy1vbWFlJywgJzxvdXRmaWxlLm1hZT4n

> <r_lp_tautomer_probability>
1

> <r_epik_Ionization_Penalty>
  0.0024

> <r_epik_Ionization_Penalty_Charging>
  0.0024

> <r_epik_Ionization_Penalty_Neutral>
  0.0000

> <r_epik_State_Penalty>
 -0.0000

> <r_epik_Charging_Adjusted_Penalty>
0.00244470459008355

> <i_epik_Tot_Q>
1

> <i_epik_Tot_abs_Q>
1

> <s_epik_Chemistry_Notes>
This compound has an ester and may undergo hydrolysis at high or low pH.

> <s_lp_Force_Field>
OPLS3e

> <r_lp_Energy>
30.154521

> <b_lp_Chiralities_Consistent>
1

> <s_lp_Variant>
sdf/inactives_sanitized.sdf:259-1

$$$$
sdf/inactives_sanitized.sdf:260
                    3D
 Schrodinger Suite 2020-1.
 60 61  0  0  1  0            999 V2000
   -2.8047    0.4279    2.2830 C   0  0  0  0  0  0
   -2.9219    1.0687    1.1054 N   0  0  0  0  0  0
   -2.1690   -0.6164    2.4372 O   0  0  0  0  0  0
   -2.3453    0.6514   -0.1768 C   0  0  2  0  0  0
   -0.8040    0.7224   -0.1626 C   0  0  0  0  0  0
   -0.2450    1.7878    0.1047 O   0  0  0  0  0  0
   -0.1552   -0.4123   -0.4715 N   0  0  0  0  0  0
    1.3018   -0.5603   -0.4977 C   0  0  2  0  0  0
    1.6818   -1.7176   -1.4452 C   0  0  0  0  0  0
    2.7328   -1.5174   -2.2457 N   0  0  0  0  0  0
    1.0543   -2.7764   -1.4239 O   0  0  0  0  0  0
   -2.9466    1.5064   -1.3221 C   0  0  0  0  0  0
    1.8210   -0.7785    0.9498 C   0  0  0  0  0  0
   -4.4661    1.4957   -1.4088 C   0  0  0  0  0  0
   -5.1338    0.4289   -2.0466 C   0  0  0  0  0  0
   -6.5210    0.3660   -2.0259 C   0  0  0  0  0  0
   -7.2565    1.3334   -1.3523 C   0  0  0  0  0  0
   -6.6120    2.3676   -0.6853 C   0  0  0  0  0  0
   -5.2261    2.4505   -0.6982 C   0  0  0  0  0  0
    3.3492   -0.6579    1.0987 C   0  0  0  0  0  0
    3.8149   -0.8208    2.5529 C   0  0  0  0  0  0
    5.3369   -0.6866    2.7008 C   0  0  0  0  0  0
    5.7563   -0.8508    4.1031 N   0  3  0  0  0  0
   -3.5339    1.0773    3.4332 C   0  0  0  0  0  0
   -4.8582    1.5071    3.2501 C   0  0  0  0  0  0
   -5.5781    2.1334    4.2772 C   0  0  0  0  0  0
   -4.9436    2.3282    5.5108 C   0  0  0  0  0  0
   -3.6282    1.9157    5.7068 C   0  0  0  0  0  0
   -2.9151    1.2978    4.6795 C   0  0  0  0  0  0
   -1.2700    0.8523    5.0019 Cl  0  0  0  0  0  0
   -6.9761    2.5804    4.0613 N   0  3  0  0  0  0
   -7.5771    3.1019    4.9963 O   0  0  0  0  0  0
   -7.4825    2.4155    2.9545 O   0  5  0  0  0  0
   -3.4536    1.9260    1.0758 H   0  0  0  0  0  0
   -2.6591   -0.3823   -0.3420 H   0  0  0  0  0  0
   -0.6835   -1.2450   -0.6908 H   0  0  0  0  0  0
    1.7242    0.3673   -0.8922 H   0  0  0  0  0  0
    3.2282   -0.6380   -2.2307 H   0  0  0  0  0  0
    3.0323   -2.2459   -2.8775 H   0  0  0  0  0  0
   -2.6261    2.5458   -1.2261 H   0  0  0  0  0  0
   -2.5546    1.1616   -2.2807 H   0  0  0  0  0  0
    1.3665   -0.0419    1.6149 H   0  0  0  0  0  0
    1.4925   -1.7499    1.3252 H   0  0  0  0  0  0
   -4.5693   -0.3413   -2.5517 H   0  0  0  0  0  0
   -7.0301   -0.4445   -2.5268 H   0  0  0  0  0  0
   -8.3348    1.2740   -1.3358 H   0  0  0  0  0  0
   -7.1903    3.1045   -0.1473 H   0  0  0  0  0  0
   -4.7335    3.2465   -0.1590 H   0  0  0  0  0  0
    3.8412   -1.4093    0.4804 H   0  0  0  0  0  0
    3.6726    0.3122    0.7196 H   0  0  0  0  0  0
    3.3196   -0.0756    3.1773 H   0  0  0  0  0  0
    3.4952   -1.7945    2.9269 H   0  0  0  0  0  0
    5.8451   -1.4366    2.0935 H   0  0  0  0  0  0
    5.6670    0.2917    2.3490 H   0  0  0  0  0  0
    6.7599   -0.7553    4.1692 H   0  0  0  0  0  0
    5.4845   -1.7661    4.4328 H   0  0  0  0  0  0
   -5.3396    1.3457    2.2949 H   0  0  0  0  0  0
   -5.4637    2.8068    6.3279 H   0  0  0  0  0  0
   -3.1574    2.0854    6.6642 H   0  0  0  0  0  0
    5.3147   -0.1438    4.6735 H   0  0  0  0  0  0
  1  2  1  0  0  0
  1  3  2  0  0  0
  1 24  1  0  0  0
  2  4  1  0  0  0
  2 34  1  0  0  0
  4  5  1  0  0  0
  4 12  1  0  0  0
  4 35  1  0  0  0
  5  6  2  0  0  0
  5  7  1  0  0  0
  7  8  1  0  0  0
  7 36  1  0  0  0
  8  9  1  0  0  0
  8 13  1  0  0  0
  8 37  1  0  0  0
  9 10  1  0  0  0
  9 11  2  0  0  0
 10 38  1  0  0  0
 10 39  1  0  0  0
 12 14  1  0  0  0
 12 40  1  0  0  0
 12 41  1  0  0  0
 13 20  1  0  0  0
 13 42  1  0  0  0
 13 43  1  0  0  0
 14 15  2  0  0  0
 14 19  1  0  0  0
 15 16  1  0  0  0
 15 44  1  0  0  0
 16 17  2  0  0  0
 16 45  1  0  0  0
 17 18  1  0  0  0
 17 46  1  0  0  0
 18 19  2  0  0  0
 18 47  1  0  0  0
 19 48  1  0  0  0
 20 21  1  0  0  0
 20 49  1  0  0  0
 20 50  1  0  0  0
 21 22  1  0  0  0
 21 51  1  0  0  0
 21 52  1  0  0  0
 22 23  1  0  0  0
 22 53  1  0  0  0
 22 54  1  0  0  0
 23 55  1  0  0  0
 23 56  1  0  0  0
 23 60  1  0  0  0
 24 25  2  0  0  0
 24 29  1  0  0  0
 25 26  1  0  0  0
 25 57  1  0  0  0
 26 27  2  0  0  0
 26 31  1  0  0  0
 27 28  1  0  0  0
 27 58  1  0  0  0
 28 29  2  0  0  0
 28 59  1  0  0  0
 29 30  1  0  0  0
 31 32  2  0  0  0
 31 33  1  0  0  0
M  CHG  3  23   1  31   1  33  -1
M  END
> <chembl_id>
CHEMBL2382071

> <chembl_pref_name>
None

> <i_m_ct_stereo_status>
1

> <s_m_source_file>
sdf/inactives_sanitized.sdf

> <i_m_source_file_index>
260

> <i_lp_mmshare_version>
49012

> <i_f3d_flags>
0

> <s_epik_input>
Q2xjMVtjSF1bY0hdYyhbTitdKD1PKVtPLV0pW2NIXWMxQyg9TylbTkhdW0NAQEhdKFtDSDJdYzJbY0hdW2NIXVtjSF1bY0hdW2NIXTIpQyg9TylbTkhdW0NASF0oQyg9TylbTkgyXSlbQ0gyXVtDSDJdW0NIMl1bQ0gyXVtOSDJd

> <s_epik_cmdline>
J2VwaWtfcHl0aG9uJywgJy1waHQnLCAnMC41JywgJy1waCcsICc3LjUnLCAnLW50JywgJy1tYScsICcyMDAnLCAnLWltYWUnLCAnPGluZmlsZS5tYWU+JywgJy1vbWFlJywgJzxvdXRmaWxlLm1hZT4n

> <r_lp_tautomer_probability>
1

> <r_epik_Ionization_Penalty>
  0.0014

> <r_epik_Ionization_Penalty_Charging>
  0.0014

> <r_epik_Ionization_Penalty_Neutral>
  0.0000

> <r_epik_State_Penalty>
 -0.0000

> <r_epik_Charging_Adjusted_Penalty>
0.00140340395202934

> <i_epik_Tot_Q>
1

> <i_epik_Tot_abs_Q>
3

> <s_lp_Force_Field>
OPLS3e

> <r_lp_Energy>
30.628172

> <b_lp_Chiralities_Consistent>
1

> <s_lp_Variant>
sdf/inactives_sanitized.sdf:260-1

$$$$
sdf/inactives_sanitized.sdf:261
                    3D
 Schrodinger Suite 2020-1.
 63 64  0  0  1  0            999 V2000
   -5.8994    3.7016    7.0158 C   0  0  0  0  0  0
   -4.6918    3.1766    7.4713 C   0  0  0  0  0  0
   -4.0025    2.2527    6.6897 C   0  0  0  0  0  0
   -4.5227    1.8589    5.4542 C   0  0  0  0  0  0
   -5.7374    2.3860    5.0048 C   0  0  0  0  0  0
   -6.4256    3.3103    5.7863 C   0  0  0  0  0  0
   -3.7701    0.8433    4.6098 C   0  0  0  0  0  0
   -3.5797    1.3461    3.2919 O   0  0  0  0  0  0
   -2.9377    0.6174    2.3600 C   0  0  0  0  0  0
   -2.9179    1.3357    1.1699 N   0  0  0  0  0  0
   -2.4474   -0.4990    2.5517 O   0  0  0  0  0  0
   -2.2938    0.7878   -0.0454 C   0  0  2  0  0  0
   -0.7737    1.0480   -0.0632 C   0  0  0  0  0  0
   -0.3528    2.2009    0.0472 O   0  0  0  0  0  0
    0.0083   -0.0364   -0.1950 N   0  0  0  0  0  0
    1.4705   -0.0390   -0.0997 C   0  0  2  0  0  0
    2.0525   -0.8027   -1.3056 C   0  0  0  0  0  0
    2.9768   -0.1696   -2.0339 N   0  0  0  0  0  0
    1.6880   -1.9536   -1.5462 O   0  0  0  0  0  0
   -3.0093    1.3344   -1.3055 C   0  0  0  0  0  0
    1.9484   -0.6687    1.2358 C   0  0  0  0  0  0
   -4.4858    0.9846   -1.4110 C   0  0  0  0  0  0
   -5.4641    1.8378   -0.8566 C   0  0  0  0  0  0
   -6.8005    1.4607   -0.8645 C   0  0  0  0  0  0
   -7.1781    0.2323   -1.3921 C   0  0  0  0  0  0
   -6.2219   -0.6350   -1.9056 C   0  0  0  0  0  0
   -4.8801   -0.2767   -1.9058 C   0  0  0  0  0  0
    1.4265    0.0575    2.4945 C   0  0  0  0  0  0
    1.8724   -0.6107    3.8083 C   0  0  0  0  0  0
    1.3119    0.0809    5.0666 C   0  0  2  0  0  0
    1.8791   -0.5967    6.3154 N   0  3  0  0  0  0
   -0.0962    0.0069    5.1447 O   0  0  0  0  0  0
   -6.4335    4.4183    7.6223 H   0  0  0  0  0  0
   -4.2928    3.4846    8.4266 H   0  0  0  0  0  0
   -3.0665    1.8469    7.0459 H   0  0  0  0  0  0
   -6.1470    2.0815    4.0524 H   0  0  0  0  0  0
   -7.3628    3.7212    5.4412 H   0  0  0  0  0  0
   -2.8020    0.6266    5.0639 H   0  0  0  0  0  0
   -4.3382   -0.0881    4.5848 H   0  0  0  0  0  0
   -3.3177    2.2620    1.1376 H   0  0  0  0  0  0
   -2.4618   -0.2931   -0.0696 H   0  0  0  0  0  0
   -0.4215   -0.9435   -0.3067 H   0  0  0  0  0  0
    1.8436    0.9875   -0.1329 H   0  0  0  0  0  0
    3.2559    0.7721   -1.8007 H   0  0  0  0  0  0
    3.3979   -0.6308   -2.8272 H   0  0  0  0  0  0
   -2.9147    2.4211   -1.3481 H   0  0  0  0  0  0
   -2.5139    0.9595   -2.2031 H   0  0  0  0  0  0
    1.6307   -1.7128    1.2819 H   0  0  0  0  0  0
    3.0398   -0.6740    1.2652 H   0  0  0  0  0  0
   -5.1772    2.7855   -0.4248 H   0  0  0  0  0  0
   -7.5480    2.1214   -0.4507 H   0  0  0  0  0  0
   -8.2192   -0.0556   -1.3916 H   0  0  0  0  0  0
   -6.5225   -1.5956   -2.2977 H   0  0  0  0  0  0
   -4.1408   -0.9663   -2.2866 H   0  0  0  0  0  0
    1.7613    1.0959    2.4811 H   0  0  0  0  0  0
    0.3371    0.0864    2.4731 H   0  0  0  0  0  0
    1.5712   -1.6600    3.8010 H   0  0  0  0  0  0
    2.9631   -0.6094    3.8487 H   0  0  0  0  0  0
    1.6480    1.1149    5.1581 H   0  0  0  0  0  0
    2.8866   -0.5276    6.3130 H   0  0  0  0  0  0
    1.6258   -1.5741    6.3310 H   0  0  0  0  0  0
   -0.3828   -0.8420    4.7984 H   0  0  0  0  0  0
    1.5297   -0.1414    7.1465 H   0  0  0  0  0  0
  1  2  2  0  0  0
  1  6  1  0  0  0
  1 33  1  0  0  0
  2  3  1  0  0  0
  2 34  1  0  0  0
  3  4  2  0  0  0
  3 35  1  0  0  0
  4  5  1  0  0  0
  4  7  1  0  0  0
  5  6  2  0  0  0
  5 36  1  0  0  0
  6 37  1  0  0  0
  7  8  1  0  0  0
  7 38  1  0  0  0
  7 39  1  0  0  0
  8  9  1  0  0  0
  9 10  1  0  0  0
  9 11  2  0  0  0
 10 12  1  0  0  0
 10 40  1  0  0  0
 12 13  1  0  0  0
 12 20  1  0  0  0
 12 41  1  0  0  0
 13 14  2  0  0  0
 13 15  1  0  0  0
 15 16  1  0  0  0
 15 42  1  0  0  0
 16 17  1  0  0  0
 16 21  1  0  0  0
 16 43  1  0  0  0
 17 18  1  0  0  0
 17 19  2  0  0  0
 18 44  1  0  0  0
 18 45  1  0  0  0
 20 22  1  0  0  0
 20 46  1  0  0  0
 20 47  1  0  0  0
 21 28  1  0  0  0
 21 48  1  0  0  0
 21 49  1  0  0  0
 22 23  2  0  0  0
 22 27  1  0  0  0
 23 24  1  0  0  0
 23 50  1  0  0  0
 24 25  2  0  0  0
 24 51  1  0  0  0
 25 26  1  0  0  0
 25 52  1  0  0  0
 26 27  2  0  0  0
 26 53  1  0  0  0
 27 54  1  0  0  0
 28 29  1  0  0  0
 28 55  1  0  0  0
 28 56  1  0  0  0
 29 30  1  0  0  0
 29 57  1  0  0  0
 29 58  1  0  0  0
 30 31  1  0  0  0
 30 32  1  0  0  0
 30 59  1  0  0  0
 31 60  1  0  0  0
 31 61  1  0  0  0
 31 63  1  0  0  0
 32 62  1  0  0  0
M  CHG  1  31   1
M  END
> <chembl_id>
CHEMBL2381990

> <chembl_pref_name>
None

> <i_m_ct_stereo_status>
1

> <s_m_source_file>
sdf/inactives_sanitized.sdf

> <i_m_source_file_index>
261

> <i_lp_mmshare_version>
49012

> <i_f3d_flags>
0

> <s_epik_input>
W2NIXTFbY0hdW2NIXVtjSF1bY0hdYzFbQ0gyXU9DKD1PKVtOSF1bQ0BASF0oW0NIMl1jMltjSF1bY0hdW2NIXVtjSF1bY0hdMilDKD1PKVtOSF1bQ0BIXShDKD1PKVtOSDJdKVtDSDJdW0NIMl1bQ0gyXVtDQEhdKFtOSDJdKVtPSF0=

> <s_epik_cmdline>
J2VwaWtfcHl0aG9uJywgJy1waHQnLCAnMC41JywgJy1waCcsICc3LjUnLCAnLW50JywgJy1tYScsICcyMDAnLCAnLWltYWUnLCAnPGluZmlsZS5tYWU+JywgJy1vbWFlJywgJzxvdXRmaWxlLm1hZT4n

> <r_epik_Ionization_Penalty>
  0.1813

> <r_epik_Ionization_Penalty_Charging>
  0.1117

> <r_epik_Ionization_Penalty_Neutral>
  0.0696

> <r_epik_State_Penalty>
  0.1532

> <r_epik_Charging_Adjusted_Penalty>
0.264935091870534

> <i_epik_Tot_Q>
1

> <i_epik_Tot_abs_Q>
1

> <s_epik_Chemistry_Notes>
This compound has an ester and may undergo hydrolysis at high or low pH. This compound contains an acetal/aminal-like group ( X-CH(R)-Y where X, Y are N, S, or O) that may be acid/base labile, releasing an aldehyde.

> <s_lp_Force_Field>
OPLS3e

> <r_lp_Energy>
23.023272

> <b_lp_Chiralities_Consistent>
1

> <s_lp_Variant>
sdf/inactives_sanitized.sdf:261-1

$$$$
sdf/inactives_sanitized.sdf:262
                    3D
 Schrodinger Suite 2020-1.
 81 82  0  0  1  0            999 V2000
   -1.0597    0.5081   -0.0261 C   0  0  0  0  0  0
   -0.1773   -0.4819    0.1978 N   0  0  0  0  0  0
   -0.7455    1.6636   -0.3210 O   0  0  0  0  0  0
    1.2768   -0.3510    0.0995 C   0  0  2  0  0  0
    1.7567   -0.1081   -1.3435 C   0  0  0  0  0  0
    1.2192   -0.7079   -2.2753 O   0  0  0  0  0  0
    2.7776    0.7529   -1.4767 N   0  0  0  0  0  0
    3.4466    1.0856   -2.7358 C   0  0  2  0  0  0
    4.9749    1.0945   -2.5354 C   0  0  0  0  0  0
    5.7147    0.6555   -3.5575 N   0  0  0  0  0  0
    5.4708    1.5174   -1.4907 O   0  0  0  0  0  0
    1.9405   -1.5860    0.7532 C   0  0  0  0  0  0
    2.9466    2.4582   -3.2425 C   0  0  0  0  0  0
    3.4532   -1.6791    0.6163 C   0  0  0  0  0  0
    4.0330   -2.4363   -0.4250 C   0  0  0  0  0  0
    5.4085   -2.4206   -0.6133 C   0  0  0  0  0  0
    6.2179   -1.6434    0.2056 C   0  0  0  0  0  0
    5.6590   -0.8680    1.2139 C   0  0  0  0  0  0
    4.2855   -0.8696    1.4183 C   0  0  0  0  0  0
    1.4593    2.4703   -3.6399 C   0  0  0  0  0  0
    1.0134    3.8082   -4.2448 C   0  0  0  0  0  0
   -0.4756    3.8099   -4.6175 C   0  0  0  0  0  0
   -0.8835    5.1035   -5.1913 N   0  3  0  0  0  0
   -2.5536    0.1226    0.0791 C   0  0  2  0  0  0
   -3.2709    0.3454   -1.2813 C   0  0  0  0  0  0
   -4.7269   -0.1770   -1.3531 C   0  0  0  0  0  0
   -3.2440    0.9105    1.1135 N   0  0  0  0  0  0
   -3.0644    0.6405    2.4658 C   0  0  0  0  0  0
   -3.7758    1.5298    3.1845 O   0  0  0  0  0  0
   -2.3729   -0.2622    2.9455 O   0  0  0  0  0  0
   -3.7837    1.4748    4.6056 C   0  0  0  0  0  0
   -4.6851    2.5663    5.1513 C   0  0  0  0  0  0
   -6.0686    2.3754    5.1775 C   0  0  0  0  0  0
   -6.8971    3.3757    5.6798 C   0  0  0  0  0  0
   -6.3383    4.5609    6.1542 C   0  0  0  0  0  0
   -4.9586    4.7557    6.1300 C   0  0  0  0  0  0
   -4.1294    3.7562    5.6271 C   0  0  0  0  0  0
   -4.8180   -1.7027   -1.1331 C   0  0  0  0  0  0
   -5.4106    0.2648   -2.6652 C   0  0  0  0  0  0
   -0.5200   -1.4020    0.4331 H   0  0  0  0  0  0
    1.5621    0.5219    0.6908 H   0  0  0  0  0  0
    3.1670    1.1858   -0.6514 H   0  0  0  0  0  0
    3.2077    0.3277   -3.4856 H   0  0  0  0  0  0
    5.2754    0.3243   -4.4037 H   0  0  0  0  0  0
    6.7217    0.6498   -3.4855 H   0  0  0  0  0  0
    1.7094   -1.5805    1.8193 H   0  0  0  0  0  0
    1.4978   -2.5015    0.3575 H   0  0  0  0  0  0
    3.1329    3.2252   -2.4889 H   0  0  0  0  0  0
    3.5331    2.7444   -4.1169 H   0  0  0  0  0  0
    3.4089   -3.0230   -1.0835 H   0  0  0  0  0  0
    5.8494   -3.0058   -1.4068 H   0  0  0  0  0  0
    7.2864   -1.6312    0.0489 H   0  0  0  0  0  0
    6.2942   -0.2520    1.8332 H   0  0  0  0  0  0
    3.8572   -0.2442    2.1880 H   0  0  0  0  0  0
    1.2663    1.6652   -4.3501 H   0  0  0  0  0  0
    0.8432    2.2610   -2.7650 H   0  0  0  0  0  0
    1.2145    4.6111   -3.5339 H   0  0  0  0  0  0
    1.6132    4.0239   -5.1302 H   0  0  0  0  0  0
   -0.6857    3.0228   -5.3428 H   0  0  0  0  0  0
   -1.0867    3.6082   -3.7366 H   0  0  0  0  0  0
   -1.8664    5.0757   -5.4221 H   0  0  0  0  0  0
   -0.3477    5.2866   -6.0277 H   0  0  0  0  0  0
   -2.6289   -0.9394    0.3254 H   0  0  0  0  0  0
   -3.2628    1.4115   -1.5190 H   0  0  0  0  0  0
   -2.7004   -0.1326   -2.0804 H   0  0  0  0  0  0
   -5.2865    0.2977   -0.5462 H   0  0  0  0  0  0
   -3.7660    1.7283    0.8345 H   0  0  0  0  0  0
   -4.1440    0.5041    4.9512 H   0  0  0  0  0  0
   -2.7727    1.5969    4.9989 H   0  0  0  0  0  0
   -6.5005    1.4562    4.8089 H   0  0  0  0  0  0
   -7.9675    3.2332    5.7012 H   0  0  0  0  0  0
   -6.9810    5.3361    6.5450 H   0  0  0  0  0  0
   -4.5340    5.6774    6.4995 H   0  0  0  0  0  0
   -3.0600    3.9082    5.6077 H   0  0  0  0  0  0
   -3.8501   -2.1907   -1.2502 H   0  0  0  0  0  0
   -5.5048   -2.1894   -1.8256 H   0  0  0  0  0  0
   -5.1745   -1.9241   -0.1268 H   0  0  0  0  0  0
   -5.6428   -0.5731   -3.3226 H   0  0  0  0  0  0
   -4.7883    0.9504   -3.2414 H   0  0  0  0  0  0
   -6.3477    0.7821   -2.4569 H   0  0  0  0  0  0
   -0.7175    5.8387   -4.5189 H   0  0  0  0  0  0
  1  2  1  0  0  0
  1  3  2  0  0  0
  1 24  1  0  0  0
  2  4  1  0  0  0
  2 40  1  0  0  0
  4  5  1  0  0  0
  4 12  1  0  0  0
  4 41  1  0  0  0
  5  6  2  0  0  0
  5  7  1  0  0  0
  7  8  1  0  0  0
  7 42  1  0  0  0
  8  9  1  0  0  0
  8 13  1  0  0  0
  8 43  1  0  0  0
  9 10  1  0  0  0
  9 11  2  0  0  0
 10 44  1  0  0  0
 10 45  1  0  0  0
 12 14  1  0  0  0
 12 46  1  0  0  0
 12 47  1  0  0  0
 13 20  1  0  0  0
 13 48  1  0  0  0
 13 49  1  0  0  0
 14 15  2  0  0  0
 14 19  1  0  0  0
 15 16  1  0  0  0
 15 50  1  0  0  0
 16 17  2  0  0  0
 16 51  1  0  0  0
 17 18  1  0  0  0
 17 52  1  0  0  0
 18 19  2  0  0  0
 18 53  1  0  0  0
 19 54  1  0  0  0
 20 21  1  0  0  0
 20 55  1  0  0  0
 20 56  1  0  0  0
 21 22  1  0  0  0
 21 57  1  0  0  0
 21 58  1  0  0  0
 22 23  1  0  0  0
 22 59  1  0  0  0
 22 60  1  0  0  0
 23 61  1  0  0  0
 23 62  1  0  0  0
 23 81  1  0  0  0
 24 25  1  0  0  0
 24 27  1  0  0  0
 24 63  1  0  0  0
 25 26  1  0  0  0
 25 64  1  0  0  0
 25 65  1  0  0  0
 26 38  1  0  0  0
 26 39  1  0  0  0
 26 66  1  0  0  0
 27 28  1  0  0  0
 27 67  1  0  0  0
 28 29  1  0  0  0
 28 30  2  0  0  0
 29 31  1  0  0  0
 31 32  1  0  0  0
 31 68  1  0  0  0
 31 69  1  0  0  0
 32 33  2  0  0  0
 32 37  1  0  0  0
 33 34  1  0  0  0
 33 70  1  0  0  0
 34 35  2  0  0  0
 34 71  1  0  0  0
 35 36  1  0  0  0
 35 72  1  0  0  0
 36 37  2  0  0  0
 36 73  1  0  0  0
 37 74  1  0  0  0
 38 75  1  0  0  0
 38 76  1  0  0  0
 38 77  1  0  0  0
 39 78  1  0  0  0
 39 79  1  0  0  0
 39 80  1  0  0  0
M  CHG  1  23   1
M  END
> <chembl_id>
CHEMBL2382081

> <chembl_pref_name>
None

> <i_m_ct_stereo_status>
1

> <s_m_source_file>
sdf/inactives_sanitized.sdf

> <i_m_source_file_index>
262

> <i_lp_mmshare_version>
49012

> <i_f3d_flags>
0

> <s_epik_input>
W05IMl1bQ0gyXVtDSDJdW0NIMl1bQ0gyXVtDQEBIXShDKD1PKVtOSDJdKVtOSF1DKD1PKVtDQEhdKFtDSDJdYzFbY0hdW2NIXVtjSF1bY0hdW2NIXTEpW05IXUMoPU8pW0NASF0oW0NIMl1bQ0hdKFtDSDNdKVtDSDNdKVtOSF1DKD1PKU9bQ0gyXWMyW2NIXVtjSF1bY0hdW2NIXVtjSF0y

> <s_epik_cmdline>
J2VwaWtfcHl0aG9uJywgJy1waHQnLCAnMC41JywgJy1waCcsICc3LjUnLCAnLW50JywgJy1tYScsICcyMDAnLCAnLWltYWUnLCAnPGluZmlsZS5tYWU+JywgJy1vbWFlJywgJzxvdXRmaWxlLm1hZT4n

> <r_lp_tautomer_probability>
1

> <r_epik_Ionization_Penalty>
  0.0014

> <r_epik_Ionization_Penalty_Charging>
  0.0014

> <r_epik_Ionization_Penalty_Neutral>
  0.0000

> <r_epik_State_Penalty>
 -0.0000

> <r_epik_Charging_Adjusted_Penalty>
0.00140340395202934

> <i_epik_Tot_Q>
1

> <i_epik_Tot_abs_Q>
1

> <s_epik_Chemistry_Notes>
This compound has an ester and may undergo hydrolysis at high or low pH.

> <s_lp_Force_Field>
OPLS3e

> <r_lp_Energy>
25.16435

> <b_lp_Chiralities_Consistent>
1

> <s_lp_Variant>
sdf/inactives_sanitized.sdf:262-1

$$$$
sdf/inactives_sanitized.sdf:263
                    3D
 Schrodinger Suite 2020-1.
 68 70  0  0  1  0            999 V2000
   -0.9732   -0.5128   -2.2795 C   0  0  0  0  0  0
   -0.7749   -0.8753   -0.9965 N   0  0  0  0  0  0
   -0.5851    0.5631   -2.7410 O   0  0  0  0  0  0
   -0.0810   -0.0932    0.0343 C   0  0  2  0  0  0
    1.4137    0.1097   -0.2937 C   0  0  0  0  0  0
    2.1343   -0.8711   -0.4885 O   0  0  0  0  0  0
    1.8472    1.3807   -0.3209 N   0  0  0  0  0  0
    3.2215    1.7891   -0.6205 C   0  0  2  0  0  0
    3.4957    3.1674    0.0173 C   0  0  0  0  0  0
    4.6778    3.3258    0.6196 N   0  0  0  0  0  0
    2.6654    4.0723   -0.0659 O   0  0  0  0  0  0
   -0.2660   -0.7642    1.4191 C   0  0  0  0  0  0
    3.4315    1.7908   -2.1593 C   0  0  0  0  0  0
   -1.7079   -0.9225    1.8759 C   0  0  0  0  0  0
   -2.4329   -2.0928    1.5628 C   0  0  0  0  0  0
   -3.7774   -2.1873    1.8965 C   0  0  0  0  0  0
   -4.4216   -1.1223    2.5138 C   0  0  0  0  0  0
   -3.7311    0.0508    2.7918 C   0  0  0  0  0  0
   -2.3862    0.1654    2.4653 C   0  0  0  0  0  0
    4.9018    1.9240   -2.5978 C   0  0  0  0  0  0
    5.0700    1.8551   -4.1225 C   0  0  0  0  0  0
    6.5377    1.9685   -4.5577 C   0  0  0  0  0  0
    6.6692    1.9023   -6.0233 N   0  3  0  0  0  0
   -1.7312   -1.4988   -3.1425 C   0  0  0  0  0  0
   -1.8902   -2.8432   -2.7674 C   0  0  0  0  0  0
   -2.6009   -3.6999   -3.6049 C   0  0  0  0  0  0
   -3.1507   -3.2955   -4.7748 N   0  0  0  0  0  0
   -3.0065   -1.9959   -5.1598 C   0  0  0  0  0  0
   -2.2983   -1.0825   -4.3581 C   0  0  0  0  0  0
   -3.6433   -1.6117   -6.4667 C   0  0  0  0  0  0
   -4.1693   -2.5560   -7.3670 C   0  0  0  0  0  0
   -4.7550   -2.1359   -8.5745 C   0  0  0  0  0  0
   -4.7915   -0.7582   -8.8400 C   0  0  0  0  0  0
   -4.2543    0.1282   -7.9096 C   0  0  0  0  0  0
   -3.6912   -0.2787   -6.7470 N   0  0  0  0  0  0
   -5.3235   -3.1266   -9.5487 C   0  0  0  0  0  0
   -5.7685   -2.6922  -10.6359 O   0  0  0  0  0  0
   -5.3237   -4.3362   -9.2248 O   0  5  0  0  0  0
   -1.1280   -1.7697   -0.6901 H   0  0  0  0  0  0
   -0.5707    0.8829    0.0774 H   0  0  0  0  0  0
    1.1968    2.1322   -0.1405 H   0  0  0  0  0  0
    3.8938    1.0548   -0.1698 H   0  0  0  0  0  0
    5.3377    2.5632    0.6621 H   0  0  0  0  0  0
    4.9131    4.2109    1.0448 H   0  0  0  0  0  0
    0.1984   -1.7525    1.4239 H   0  0  0  0  0  0
    0.2606   -0.1865    2.1813 H   0  0  0  0  0  0
    3.0457    0.8605   -2.5801 H   0  0  0  0  0  0
    2.8393    2.5846   -2.6191 H   0  0  0  0  0  0
   -1.9456   -2.9182    1.0645 H   0  0  0  0  0  0
   -4.3264   -3.0889    1.6676 H   0  0  0  0  0  0
   -5.4684   -1.2022    2.7673 H   0  0  0  0  0  0
   -4.2445    0.8801    3.2557 H   0  0  0  0  0  0
   -1.8622    1.0886    2.6660 H   0  0  0  0  0  0
    5.3113    2.8674   -2.2356 H   0  0  0  0  0  0
    5.4902    1.1335   -2.1302 H   0  0  0  0  0  0
    4.6509    0.9177   -4.4911 H   0  0  0  0  0  0
    4.4881    2.6535   -4.5857 H   0  0  0  0  0  0
    6.9655    2.9094   -4.2096 H   0  0  0  0  0  0
    7.1265    1.1632   -4.1167 H   0  0  0  0  0  0
    7.6436    1.9779   -6.2790 H   0  0  0  0  0  0
    6.1525    2.6614   -6.4442 H   0  0  0  0  0  0
   -1.4743   -3.2324   -1.8491 H   0  0  0  0  0  0
   -2.7389   -4.7384   -3.3422 H   0  0  0  0  0  0
   -2.1922   -0.0551   -4.6770 H   0  0  0  0  0  0
   -4.1205   -3.6094   -7.1306 H   0  0  0  0  0  0
   -5.2278   -0.3697   -9.7493 H   0  0  0  0  0  0
   -4.2706    1.1928   -8.0906 H   0  0  0  0  0  0
    6.3028    1.0218   -6.3565 H   0  0  0  0  0  0
  1  2  1  0  0  0
  1  3  2  0  0  0
  1 24  1  0  0  0
  2  4  1  0  0  0
  2 39  1  0  0  0
  4  5  1  0  0  0
  4 12  1  0  0  0
  4 40  1  0  0  0
  5  6  2  0  0  0
  5  7  1  0  0  0
  7  8  1  0  0  0
  7 41  1  0  0  0
  8  9  1  0  0  0
  8 13  1  0  0  0
  8 42  1  0  0  0
  9 10  1  0  0  0
  9 11  2  0  0  0
 10 43  1  0  0  0
 10 44  1  0  0  0
 12 14  1  0  0  0
 12 45  1  0  0  0
 12 46  1  0  0  0
 13 20  1  0  0  0
 13 47  1  0  0  0
 13 48  1  0  0  0
 14 15  2  0  0  0
 14 19  1  0  0  0
 15 16  1  0  0  0
 15 49  1  0  0  0
 16 17  2  0  0  0
 16 50  1  0  0  0
 17 18  1  0  0  0
 17 51  1  0  0  0
 18 19  2  0  0  0
 18 52  1  0  0  0
 19 53  1  0  0  0
 20 21  1  0  0  0
 20 54  1  0  0  0
 20 55  1  0  0  0
 21 22  1  0  0  0
 21 56  1  0  0  0
 21 57  1  0  0  0
 22 23  1  0  0  0
 22 58  1  0  0  0
 22 59  1  0  0  0
 23 60  1  0  0  0
 23 61  1  0  0  0
 23 68  1  0  0  0
 24 25  2  0  0  0
 24 29  1  0  0  0
 25 26  1  0  0  0
 25 62  1  0  0  0
 26 27  2  0  0  0
 26 63  1  0  0  0
 27 28  1  0  0  0
 28 29  2  0  0  0
 28 30  1  0  0  0
 29 64  1  0  0  0
 30 31  2  0  0  0
 30 35  1  0  0  0
 31 32  1  0  0  0
 31 65  1  0  0  0
 32 33  2  0  0  0
 32 36  1  0  0  0
 33 34  1  0  0  0
 33 66  1  0  0  0
 34 35  2  0  0  0
 34 67  1  0  0  0
 36 37  2  0  0  0
 36 38  1  0  0  0
M  CHG  2  23   1  38  -1
M  END
> <chembl_id>
CHEMBL2382075

> <chembl_pref_name>
None

> <i_m_ct_stereo_status>
1

> <s_m_source_file>
sdf/inactives_sanitized.sdf

> <i_m_source_file_index>
263

> <i_lp_mmshare_version>
49012

> <i_f3d_flags>
0

> <s_epik_input>
W05IMl1bQ0gyXVtDSDJdW0NIMl1bQ0gyXVtDQEBIXShDKD1PKVtOSDJdKVtOSF1DKD1PKVtDQEhdKFtDSDJdYzFbY0hdW2NIXVtjSF1bY0hdW2NIXTEpW05IXUMoPU8pYzJbY0hdW2NIXW5jKFtjSF0yKS1jM1tjSF1jKFtjSF1bY0hdbjMpQyg9TylbT0hd

> <s_epik_cmdline>
J2VwaWtfcHl0aG9uJywgJy1waHQnLCAnMC41JywgJy1waCcsICc3LjUnLCAnLW50JywgJy1tYScsICcyMDAnLCAnLWltYWUnLCAnPGluZmlsZS5tYWU+JywgJy1vbWFlJywgJzxvdXRmaWxlLm1hZT4n

> <r_lp_tautomer_probability>
1

> <r_epik_Ionization_Penalty>
  0.0019

> <r_epik_Ionization_Penalty_Charging>
  0.0018

> <r_epik_Ionization_Penalty_Neutral>
  0.0001

> <r_epik_State_Penalty>
 -0.0000

> <r_epik_Charging_Adjusted_Penalty>
0.00179472615857821

> <i_epik_Tot_Q>
0

> <i_epik_Tot_abs_Q>
2

> <s_lp_Force_Field>
OPLS3e

> <r_lp_Energy>
51.781494

> <b_lp_Chiralities_Consistent>
1

> <s_lp_Variant>
sdf/inactives_sanitized.sdf:263-1

$$$$
sdf/inactives_sanitized.sdf:264
                    3D
 Schrodinger Suite 2020-1.
 59 60  0  0  1  0            999 V2000
   -3.1004    2.0156    1.7473 C   0  0  0  0  0  0
   -3.2056    1.7376    0.4314 N   0  0  0  0  0  0
   -2.3635    1.3833    2.5059 O   0  0  0  0  0  0
   -2.4592    0.7045   -0.2967 C   0  0  2  0  0  0
   -0.9540    1.0356   -0.3798 C   0  0  0  0  0  0
   -0.5902    2.0905   -0.9038 O   0  0  0  0  0  0
   -0.1146    0.1103    0.1167 N   0  0  0  0  0  0
    1.3483    0.2056    0.0960 C   0  0  2  0  0  0
    1.9005   -0.0187   -1.3314 C   0  0  0  0  0  0
    2.8393    0.8330   -1.7532 N   0  0  0  0  0  0
    1.5014   -0.9628   -2.0124 O   0  0  0  0  0  0
   -3.0691    0.5019   -1.7067 C   0  0  0  0  0  0
    1.9120   -0.8221    1.1103 C   0  0  0  0  0  0
   -4.5212    0.0512   -1.7261 C   0  0  0  0  0  0
   -4.8415   -1.3114   -1.5474 C   0  0  0  0  0  0
   -6.1699   -1.7086   -1.4708 C   0  0  0  0  0  0
   -7.1878   -0.7654   -1.5401 C   0  0  0  0  0  0
   -6.8867    0.5843   -1.6743 C   0  0  0  0  0  0
   -5.5646    1.0018   -1.7532 C   0  0  0  0  0  0
    3.4139   -0.6606    1.4140 C   0  0  0  0  0  0
    3.9126   -1.6601    2.4679 C   0  0  0  0  0  0
    5.4088   -1.4979    2.7715 C   0  0  0  0  0  0
    5.8620   -2.4767    3.7746 N   0  3  0  0  0  0
   -3.9296    3.1012    2.2358 C   0  0  0  0  0  0
   -4.2794    3.3189    3.6964 C   0  0  0  0  0  0
   -5.3287    4.4255    3.6347 C   0  0  0  0  0  0
   -5.2060    5.0951    2.2692 C   0  0  0  0  0  0
   -4.4470    4.0730    1.4508 C   0  0  0  0  0  0
   -3.8345    2.2913   -0.1311 H   0  0  0  0  0  0
   -2.5860   -0.2329    0.2507 H   0  0  0  0  0  0
   -0.4956   -0.7321    0.5222 H   0  0  0  0  0  0
    1.6129    1.2089    0.4386 H   0  0  0  0  0  0
    3.1407    1.5958   -1.1647 H   0  0  0  0  0  0
    3.2400    0.7276   -2.6739 H   0  0  0  0  0  0
   -2.9941    1.4247   -2.2858 H   0  0  0  0  0  0
   -2.4863   -0.2397   -2.2567 H   0  0  0  0  0  0
    1.3704   -0.7248    2.0534 H   0  0  0  0  0  0
    1.7180   -1.8393    0.7639 H   0  0  0  0  0  0
   -4.0557   -2.0490   -1.4734 H   0  0  0  0  0  0
   -6.4124   -2.7539   -1.3487 H   0  0  0  0  0  0
   -8.2185   -1.0822   -1.4769 H   0  0  0  0  0  0
   -7.6838    1.3122   -1.7100 H   0  0  0  0  0  0
   -5.3393    2.0547   -1.8385 H   0  0  0  0  0  0
    3.9918   -0.7910    0.4985 H   0  0  0  0  0  0
    3.6066    0.3569    1.7566 H   0  0  0  0  0  0
    3.3378   -1.5338    3.3866 H   0  0  0  0  0  0
    3.7173   -2.6763    2.1221 H   0  0  0  0  0  0
    5.9973   -1.6306    1.8627 H   0  0  0  0  0  0
    5.6131   -0.4935    3.1444 H   0  0  0  0  0  0
    6.8465   -2.3426    3.9566 H   0  0  0  0  0  0
    5.7105   -3.4132    3.4275 H   0  0  0  0  0  0
   -4.6764    2.4280    4.1858 H   0  0  0  0  0  0
   -3.3932    3.6283    4.2526 H   0  0  0  0  0  0
   -6.3238    3.9886    3.7358 H   0  0  0  0  0  0
   -5.2171    5.1398    4.4516 H   0  0  0  0  0  0
   -6.1847    5.3404    1.8562 H   0  0  0  0  0  0
   -4.6306    6.0196    2.3302 H   0  0  0  0  0  0
   -4.3352    4.1786    0.3809 H   0  0  0  0  0  0
    5.3428   -2.3486    4.6315 H   0  0  0  0  0  0
  1  2  1  0  0  0
  1  3  2  0  0  0
  1 24  1  0  0  0
  2  4  1  0  0  0
  2 29  1  0  0  0
  4  5  1  0  0  0
  4 12  1  0  0  0
  4 30  1  0  0  0
  5  6  2  0  0  0
  5  7  1  0  0  0
  7  8  1  0  0  0
  7 31  1  0  0  0
  8  9  1  0  0  0
  8 13  1  0  0  0
  8 32  1  0  0  0
  9 10  1  0  0  0
  9 11  2  0  0  0
 10 33  1  0  0  0
 10 34  1  0  0  0
 12 14  1  0  0  0
 12 35  1  0  0  0
 12 36  1  0  0  0
 13 20  1  0  0  0
 13 37  1  0  0  0
 13 38  1  0  0  0
 14 15  2  0  0  0
 14 19  1  0  0  0
 15 16  1  0  0  0
 15 39  1  0  0  0
 16 17  2  0  0  0
 16 40  1  0  0  0
 17 18  1  0  0  0
 17 41  1  0  0  0
 18 19  2  0  0  0
 18 42  1  0  0  0
 19 43  1  0  0  0
 20 21  1  0  0  0
 20 44  1  0  0  0
 20 45  1  0  0  0
 21 22  1  0  0  0
 21 46  1  0  0  0
 21 47  1  0  0  0
 22 23  1  0  0  0
 22 48  1  0  0  0
 22 49  1  0  0  0
 23 50  1  0  0  0
 23 51  1  0  0  0
 23 59  1  0  0  0
 24 25  1  0  0  0
 24 28  2  0  0  0
 25 26  1  0  0  0
 25 52  1  0  0  0
 25 53  1  0  0  0
 26 27  1  0  0  0
 26 54  1  0  0  0
 26 55  1  0  0  0
 27 28  1  0  0  0
 27 56  1  0  0  0
 27 57  1  0  0  0
 28 58  1  0  0  0
M  CHG  1  23   1
M  END
> <chembl_id>
CHEMBL2382077

> <chembl_pref_name>
None

> <i_m_ct_stereo_status>
1

> <s_m_source_file>
sdf/inactives_sanitized.sdf

> <i_m_source_file_index>
264

> <i_lp_mmshare_version>
49012

> <i_f3d_flags>
0

> <s_epik_input>
W2NIXTFbY0hdW2NIXVtjSF1bY0hdYzFbQ0gyXVtDQEhdKFtOSF1DKD1PKUMyPVtDSF1bQ0gyXVtDSDJdW0NIMl0yKUMoPU8pW05IXVtDQEhdKEMoPU8pW05IMl0pW0NIMl1bQ0gyXVtDSDJdW0NIMl1bTkgyXQ==

> <s_epik_cmdline>
J2VwaWtfcHl0aG9uJywgJy1waHQnLCAnMC41JywgJy1waCcsICc3LjUnLCAnLW50JywgJy1tYScsICcyMDAnLCAnLWltYWUnLCAnPGluZmlsZS5tYWU+JywgJy1vbWFlJywgJzxvdXRmaWxlLm1hZT4n

> <r_lp_tautomer_probability>
1

> <r_epik_Ionization_Penalty>
  0.0014

> <r_epik_Ionization_Penalty_Charging>
  0.0014

> <r_epik_Ionization_Penalty_Neutral>
  0.0000

> <r_epik_State_Penalty>
 -0.0000

> <r_epik_Charging_Adjusted_Penalty>
0.00140340395202934

> <i_epik_Tot_Q>
1

> <i_epik_Tot_abs_Q>
1

> <s_lp_Force_Field>
OPLS3e

> <r_lp_Energy>
15.064603

> <b_lp_Chiralities_Consistent>
1

> <s_lp_Variant>
sdf/inactives_sanitized.sdf:264-1

$$$$
sdf/inactives_sanitized.sdf:265
                    3D
 Schrodinger Suite 2020-1.
 63 64  0  0  1  0            999 V2000
   -2.4758   -3.9410   -7.1931 C   0  0  0  0  0  0
   -2.3419   -2.5750   -7.4339 C   0  0  0  0  0  0
   -2.4829   -1.6726   -6.3828 C   0  0  0  0  0  0
   -2.7576   -2.1410   -5.0959 C   0  0  0  0  0  0
   -2.8926   -3.5113   -4.8596 C   0  0  0  0  0  0
   -2.7504   -4.4134   -5.9110 C   0  0  0  0  0  0
   -2.9137   -1.1575   -3.9505 C   0  0  0  0  0  0
   -1.7750   -1.2280   -3.1005 O   0  0  0  0  0  0
   -1.6354   -0.3774   -2.0658 C   0  0  0  0  0  0
   -0.4608   -0.6839   -1.3893 N   0  0  0  0  0  0
   -2.4302    0.5235   -1.7849 O   0  0  0  0  0  0
   -0.0597    0.0485   -0.1767 C   0  0  2  0  0  0
    1.4774   -0.0129   -0.0470 C   0  0  0  0  0  0
    2.0685   -1.0886   -0.1713 O   0  0  0  0  0  0
    2.0892    1.1499    0.2397 N   0  0  0  0  0  0
    3.5292    1.3096    0.4676 C   0  0  2  0  0  0
    3.9405    0.7445    1.8475 C   0  0  0  0  0  0
    5.0518    0.0041    1.8867 N   0  0  0  0  0  0
    3.2780    1.0071    2.8508 O   0  0  0  0  0  0
   -0.6756   -0.6102    1.0931 C   0  0  0  0  0  0
    3.8758    2.8140    0.3252 C   0  0  0  0  0  0
   -2.1847   -0.4948    1.2332 C   0  0  0  0  0  0
   -2.7664    0.7379    1.5957 C   0  0  0  0  0  0
   -4.1655    0.8554    1.7046 C   0  0  0  0  0  0
   -4.9882   -0.2599    1.4534 C   0  0  0  0  0  0
   -4.4105   -1.4939    1.0958 C   0  0  0  0  0  0
   -3.0114   -1.6117    0.9876 C   0  0  0  0  0  0
    5.3847    3.1156    0.2435 C   0  0  0  0  0  0
    5.6769    4.6074    0.0250 C   0  0  0  0  0  0
    7.1805    4.9052   -0.0633 C   0  0  0  0  0  0
    7.4319    6.3412   -0.2742 N   0  3  0  0  0  0
   -6.3437   -0.1439    1.5562 O   0  0  0  0  0  0
   -2.3653   -4.6405   -8.0086 H   0  0  0  0  0  0
   -2.1293   -2.2178   -8.4308 H   0  0  0  0  0  0
   -2.3780   -0.6136   -6.5698 H   0  0  0  0  0  0
   -3.1050   -3.8760   -3.8649 H   0  0  0  0  0  0
   -2.8521   -5.4738   -5.7333 H   0  0  0  0  0  0
   -3.0373   -0.1470   -4.3448 H   0  0  0  0  0  0
   -3.8201   -1.3949   -3.3912 H   0  0  0  0  0  0
    0.1173   -1.4473   -1.7099 H   0  0  0  0  0  0
   -0.3645    1.0974   -0.2312 H   0  0  0  0  0  0
    1.5323    1.9856    0.3439 H   0  0  0  0  0  0
    4.0464    0.7598   -0.3225 H   0  0  0  0  0  0
    5.5696   -0.1879    1.0418 H   0  0  0  0  0  0
    5.3711   -0.3818    2.7635 H   0  0  0  0  0  0
   -0.4035   -1.6667    1.1439 H   0  0  0  0  0  0
   -0.2488   -0.1594    1.9920 H   0  0  0  0  0  0
    3.4113    3.2008   -0.5840 H   0  0  0  0  0  0
    3.4343    3.3838    1.1456 H   0  0  0  0  0  0
   -2.1409    1.5983    1.7825 H   0  0  0  0  0  0
   -4.6055    1.8034    1.9774 H   0  0  0  0  0  0
   -5.0368   -2.3519    0.9009 H   0  0  0  0  0  0
   -2.5762   -2.5590    0.7048 H   0  0  0  0  0  0
    5.8777    2.7862    1.1588 H   0  0  0  0  0  0
    5.8254    2.5357   -0.5683 H   0  0  0  0  0  0
    5.1846    4.9423   -0.8892 H   0  0  0  0  0  0
    5.2365    5.1850    0.8391 H   0  0  0  0  0  0
    7.6845    4.5918    0.8518 H   0  0  0  0  0  0
    7.6292    4.3473   -0.8859 H   0  0  0  0  0  0
    8.4269    6.5035   -0.3396 H   0  0  0  0  0  0
    7.0572    6.8690    0.5014 H   0  0  0  0  0  0
   -6.8072   -0.9607    1.3575 H   0  0  0  0  0  0
    6.9873    6.6411   -1.1302 H   0  0  0  0  0  0
  1  2  2  0  0  0
  1  6  1  0  0  0
  1 33  1  0  0  0
  2  3  1  0  0  0
  2 34  1  0  0  0
  3  4  2  0  0  0
  3 35  1  0  0  0
  4  5  1  0  0  0
  4  7  1  0  0  0
  5  6  2  0  0  0
  5 36  1  0  0  0
  6 37  1  0  0  0
  7  8  1  0  0  0
  7 38  1  0  0  0
  7 39  1  0  0  0
  8  9  1  0  0  0
  9 10  1  0  0  0
  9 11  2  0  0  0
 10 12  1  0  0  0
 10 40  1  0  0  0
 12 13  1  0  0  0
 12 20  1  0  0  0
 12 41  1  0  0  0
 13 14  2  0  0  0
 13 15  1  0  0  0
 15 16  1  0  0  0
 15 42  1  0  0  0
 16 17  1  0  0  0
 16 21  1  0  0  0
 16 43  1  0  0  0
 17 18  1  0  0  0
 17 19  2  0  0  0
 18 44  1  0  0  0
 18 45  1  0  0  0
 20 22  1  0  0  0
 20 46  1  0  0  0
 20 47  1  0  0  0
 21 28  1  0  0  0
 21 48  1  0  0  0
 21 49  1  0  0  0
 22 23  2  0  0  0
 22 27  1  0  0  0
 23 24  1  0  0  0
 23 50  1  0  0  0
 24 25  2  0  0  0
 24 51  1  0  0  0
 25 26  1  0  0  0
 25 32  1  0  0  0
 26 27  2  0  0  0
 26 52  1  0  0  0
 27 53  1  0  0  0
 28 29  1  0  0  0
 28 54  1  0  0  0
 28 55  1  0  0  0
 29 30  1  0  0  0
 29 56  1  0  0  0
 29 57  1  0  0  0
 30 31  1  0  0  0
 30 58  1  0  0  0
 30 59  1  0  0  0
 31 60  1  0  0  0
 31 61  1  0  0  0
 31 63  1  0  0  0
 32 62  1  0  0  0
M  CHG  1  31   1
M  END
> <chembl_id>
CHEMBL2382062

> <chembl_pref_name>
None

> <i_m_ct_stereo_status>
1

> <s_m_source_file>
sdf/inactives_sanitized.sdf

> <i_m_source_file_index>
265

> <i_lp_mmshare_version>
49012

> <i_f3d_flags>
0

> <s_epik_input>
W2NIXTFbY0hdW2NIXVtjSF1bY0hdYzFbQ0gyXU9DKD1PKVtOSF1bQ0BASF0oW0NIMl1jMltjSF1bY0hdYyhbT0hdKVtjSF1bY0hdMilDKD1PKVtOSF1bQ0BIXShDKD1PKVtOSDJdKVtDSDJdW0NIMl1bQ0gyXVtDSDJdW05IMl0=

> <s_epik_cmdline>
J2VwaWtfcHl0aG9uJywgJy1waHQnLCAnMC41JywgJy1waCcsICc3LjUnLCAnLW50JywgJy1tYScsICcyMDAnLCAnLWltYWUnLCAnPGluZmlsZS5tYWU+JywgJy1vbWFlJywgJzxvdXRmaWxlLm1hZT4n

> <r_lp_tautomer_probability>
1

> <r_epik_Ionization_Penalty>
  0.0033

> <r_epik_Ionization_Penalty_Charging>
  0.0014

> <r_epik_Ionization_Penalty_Neutral>
  0.0019

> <r_epik_State_Penalty>
 -0.0000

> <r_epik_Charging_Adjusted_Penalty>
0.00140340395202934

> <i_epik_Tot_Q>
1

> <i_epik_Tot_abs_Q>
1

> <s_epik_Chemistry_Notes>
This compound has an ester and may undergo hydrolysis at high or low pH.

> <s_lp_Force_Field>
OPLS3e

> <r_lp_Energy>
26.38537

> <b_lp_Chiralities_Consistent>
1

> <s_lp_Variant>
sdf/inactives_sanitized.sdf:265-1

$$$$
sdf/inactives_sanitized.sdf:266
                    3D
 Schrodinger Suite 2020-1.
 66 68  0  0  1  0            999 V2000
   -6.1898   -0.0549    7.8355 C   0  0  0  0  0  0
   -6.7583   -0.8770    6.8643 C   0  0  0  0  0  0
   -5.9837   -1.3180    5.7942 C   0  0  0  0  0  0
   -4.6438   -0.9338    5.7013 C   0  0  0  0  0  0
   -4.0781   -0.1099    6.6775 C   0  0  0  0  0  0
   -4.8535    0.3306    7.7471 C   0  0  0  0  0  0
   -3.7984   -1.4124    4.5359 C   0  0  0  0  0  0
   -3.7771   -0.4141    3.5231 O   0  0  0  0  0  0
   -3.0599   -0.5910    2.3968 C   0  0  0  0  0  0
   -3.2059    0.5341    1.5903 N   0  0  0  0  0  0
   -2.3857   -1.5930    2.1410 O   0  0  0  0  0  0
   -2.5176    0.6459    0.2924 C   0  0  2  0  0  0
   -0.9831    0.8065    0.4316 C   0  0  0  0  0  0
   -0.5138    1.4938    1.3408 O   0  0  0  0  0  0
   -0.2473    0.1842   -0.5039 N   0  0  0  0  0  0
    1.2148    0.2240   -0.5958 C   0  0  2  0  0  0
    1.6441    0.5046   -2.0516 C   0  0  0  0  0  0
    2.7409    1.2488   -2.2187 N   0  0  0  0  0  0
    1.0124    0.0330   -2.9975 O   0  0  0  0  0  0
   -3.1450    1.8224   -0.4985 C   0  0  0  0  0  0
    1.8033   -1.1158   -0.0824 C   0  0  0  0  0  0
   -2.7011    1.9793   -1.9275 C   0  0  0  0  0  0
    1.6014   -1.3491    1.4272 C   0  0  0  0  0  0
    2.2383   -2.6548    1.9217 C   0  0  0  0  0  0
    1.9811   -2.8963    3.4158 C   0  0  0  0  0  0
    2.5941   -4.1560    3.8697 N   0  3  0  0  0  0
   -2.5404    1.6624   -4.1321 N   0  0  0  0  0  0
   -3.2431    1.3408   -2.9896 C   0  0  0  0  0  0
   -1.4892    2.5141   -3.8632 C   0  0  0  0  0  0
   -1.5647    2.7341   -2.4538 C   0  0  0  0  0  0
   -0.5794    3.5757   -1.8835 C   0  0  0  0  0  0
    0.4250    4.1682   -2.6760 C   0  0  0  0  0  0
    0.4685    3.9334   -4.0642 C   0  0  0  0  0  0
   -0.4941    3.1014   -4.6645 C   0  0  0  0  0  0
   -6.7911    0.2874    8.6648 H   0  0  0  0  0  0
   -7.7950   -1.1705    6.9410 H   0  0  0  0  0  0
   -6.4247   -1.9545    5.0406 H   0  0  0  0  0  0
   -3.0423    0.1897    6.6072 H   0  0  0  0  0  0
   -4.4214    0.9681    8.5044 H   0  0  0  0  0  0
   -2.7875   -1.6280    4.8868 H   0  0  0  0  0  0
   -4.2043   -2.3468    4.1438 H   0  0  0  0  0  0
   -3.7772    1.3042    1.9061 H   0  0  0  0  0  0
   -2.7250   -0.2691   -0.2695 H   0  0  0  0  0  0
   -0.7142   -0.3374   -1.2319 H   0  0  0  0  0  0
    1.5994    1.0373    0.0242 H   0  0  0  0  0  0
    3.2383    1.6152   -1.4204 H   0  0  0  0  0  0
    3.0734    1.4554   -3.1494 H   0  0  0  0  0  0
   -4.2317    1.7216   -0.5065 H   0  0  0  0  0  0
   -2.9486    2.7652    0.0154 H   0  0  0  0  0  0
    1.3723   -1.9516   -0.6376 H   0  0  0  0  0  0
    2.8753   -1.1439   -0.2864 H   0  0  0  0  0  0
    2.0143   -0.5065    1.9835 H   0  0  0  0  0  0
    0.5355   -1.3723    1.6552 H   0  0  0  0  0  0
    1.8452   -3.4914    1.3420 H   0  0  0  0  0  0
    3.3126   -2.6277    1.7338 H   0  0  0  0  0  0
    2.3855   -2.0746    4.0081 H   0  0  0  0  0  0
    0.9089   -2.9381    3.6128 H   0  0  0  0  0  0
    2.4054   -4.2879    4.8535 H   0  0  0  0  0  0
    3.5926   -4.1193    3.7218 H   0  0  0  0  0  0
   -2.7791    1.2910   -5.0404 H   0  0  0  0  0  0
   -4.0925    0.6757   -2.9344 H   0  0  0  0  0  0
   -0.5947    3.7628   -0.8199 H   0  0  0  0  0  0
    1.1665    4.8041   -2.2154 H   0  0  0  0  0  0
    1.2405    4.3893   -4.6664 H   0  0  0  0  0  0
   -0.4655    2.9117   -5.7272 H   0  0  0  0  0  0
    2.2052   -4.9282    3.3473 H   0  0  0  0  0  0
  1  2  2  0  0  0
  1  6  1  0  0  0
  1 35  1  0  0  0
  2  3  1  0  0  0
  2 36  1  0  0  0
  3  4  2  0  0  0
  3 37  1  0  0  0
  4  5  1  0  0  0
  4  7  1  0  0  0
  5  6  2  0  0  0
  5 38  1  0  0  0
  6 39  1  0  0  0
  7  8  1  0  0  0
  7 40  1  0  0  0
  7 41  1  0  0  0
  8  9  1  0  0  0
  9 10  1  0  0  0
  9 11  2  0  0  0
 10 12  1  0  0  0
 10 42  1  0  0  0
 12 13  1  0  0  0
 12 20  1  0  0  0
 12 43  1  0  0  0
 13 14  2  0  0  0
 13 15  1  0  0  0
 15 16  1  0  0  0
 15 44  1  0  0  0
 16 17  1  0  0  0
 16 21  1  0  0  0
 16 45  1  0  0  0
 17 18  1  0  0  0
 17 19  2  0  0  0
 18 46  1  0  0  0
 18 47  1  0  0  0
 20 22  1  0  0  0
 20 48  1  0  0  0
 20 49  1  0  0  0
 21 23  1  0  0  0
 21 50  1  0  0  0
 21 51  1  0  0  0
 22 30  1  0  0  0
 22 28  2  0  0  0
 23 24  1  0  0  0
 23 52  1  0  0  0
 23 53  1  0  0  0
 24 25  1  0  0  0
 24 54  1  0  0  0
 24 55  1  0  0  0
 25 26  1  0  0  0
 25 56  1  0  0  0
 25 57  1  0  0  0
 26 58  1  0  0  0
 26 59  1  0  0  0
 26 66  1  0  0  0
 27 29  1  0  0  0
 27 28  1  0  0  0
 27 60  1  0  0  0
 28 61  1  0  0  0
 29 30  2  0  0  0
 29 34  1  0  0  0
 30 31  1  0  0  0
 31 32  2  0  0  0
 31 62  1  0  0  0
 32 33  1  0  0  0
 32 63  1  0  0  0
 33 34  2  0  0  0
 33 64  1  0  0  0
 34 65  1  0  0  0
M  CHG  1  26   1
M  END
> <chembl_id>
CHEMBL2382061

> <chembl_pref_name>
None

> <i_m_ct_stereo_status>
1

> <s_m_source_file>
sdf/inactives_sanitized.sdf

> <i_m_source_file_index>
266

> <i_lp_mmshare_version>
49012

> <i_f3d_flags>
0

> <s_epik_input>
W2NIXTFbY0hdW2NIXVtjSF1bY0hdYzFbQ0gyXU9DKD1PKVtOSF1bQ0BASF0oW0NIMl1jKFtjSF1bbkhdMiljKGMyMylbY0hdW2NIXVtjSF1bY0hdMylDKD1PKVtOSF1bQ0BIXShDKD1PKVtOSDJdKVtDSDJdW0NIMl1bQ0gyXVtDSDJdW05IMl0=

> <s_epik_cmdline>
J2VwaWtfcHl0aG9uJywgJy1waHQnLCAnMC41JywgJy1waCcsICc3LjUnLCAnLW50JywgJy1tYScsICcyMDAnLCAnLWltYWUnLCAnPGluZmlsZS5tYWU+JywgJy1vbWFlJywgJzxvdXRmaWxlLm1hZT4n

> <r_lp_tautomer_probability>
1

> <r_epik_Ionization_Penalty>
  0.0014

> <r_epik_Ionization_Penalty_Charging>
  0.0014

> <r_epik_Ionization_Penalty_Neutral>
  0.0000

> <r_epik_State_Penalty>
 -0.0000

> <r_epik_Charging_Adjusted_Penalty>
0.00140340395202934

> <i_epik_Tot_Q>
1

> <i_epik_Tot_abs_Q>
1

> <s_epik_Chemistry_Notes>
This compound has an ester and may undergo hydrolysis at high or low pH.

> <s_lp_Force_Field>
OPLS3e

> <r_lp_Energy>
19.903952

> <b_lp_Chiralities_Consistent>
1

> <s_lp_Variant>
sdf/inactives_sanitized.sdf:266-1

$$$$
sdf/inactives_sanitized.sdf:267
                    3D
 Schrodinger Suite 2020-1.
 64 65  0  0  1  0            999 V2000
   -4.4147    1.7091    1.1553 C   0  0  0  0  0  0
   -3.1449    1.8263    0.7323 N   0  0  0  0  0  0
   -5.0699    0.6759    0.9940 O   0  0  0  0  0  0
   -2.3906    0.7924    0.0197 C   0  0  2  0  0  0
   -0.8786    1.0107    0.2089 C   0  0  0  0  0  0
   -0.4546    2.0479    0.7228 O   0  0  0  0  0  0
   -0.0980    0.0162   -0.2413 N   0  0  0  0  0  0
    1.3650    0.0341   -0.2568 C   0  0  2  0  0  0
    1.8727   -0.6824   -1.5242 C   0  0  0  0  0  0
    2.8481   -0.0794   -2.2099 N   0  0  0  0  0  0
    1.4056   -1.7729   -1.8519 O   0  0  0  0  0  0
   -2.8113    0.7684   -1.4750 C   0  0  0  0  0  0
    1.8876   -0.6075    1.0509 C   0  0  0  0  0  0
   -2.3964    1.9665   -2.3185 C   0  0  0  0  0  0
   -3.1636    3.1510   -2.2957 C   0  0  0  0  0  0
   -2.7320    4.2730   -2.9906 C   0  0  0  0  0  0
   -1.5328    4.2441   -3.6914 C   0  0  0  0  0  0
   -0.7501    3.0964   -3.6970 C   0  0  0  0  0  0
   -1.1645    1.9639   -3.0090 C   0  0  0  0  0  0
    3.4223   -0.6637    1.1752 C   0  0  0  0  0  0
    3.8810   -1.2264    2.5311 C   0  0  0  0  0  0
    5.4063   -1.3710    2.6564 C   0  0  0  0  0  0
    6.0910   -0.0661    2.6267 N   0  3  0  0  0  0
   -5.0012    2.9647    1.8458 C   0  0  2  0  0  0
   -4.3141    3.2541    3.2046 C   0  0  0  0  0  0
   -5.0133    4.3957    3.9653 C   0  0  0  0  0  0
   -6.5174    4.1159    4.1439 C   0  0  0  0  0  0
   -7.2226    3.8228    2.8059 C   0  0  0  0  0  0
   -6.5005    2.6682    2.0868 N   0  3  0  0  0  0
   -2.6447    2.6893    0.8924 H   0  0  0  0  0  0
   -2.6307   -0.1743    0.4667 H   0  0  0  0  0  0
   -0.5260   -0.8013   -0.6523 H   0  0  0  0  0  0
    1.7039    1.0724   -0.2895 H   0  0  0  0  0  0
    3.2091    0.8147   -1.9113 H   0  0  0  0  0  0
    3.2216   -0.5128   -3.0422 H   0  0  0  0  0  0
   -2.3988   -0.1260   -1.9442 H   0  0  0  0  0  0
   -3.8927    0.6515   -1.5531 H   0  0  0  0  0  0
    1.4898   -0.0481    1.8991 H   0  0  0  0  0  0
    1.4880   -1.6188    1.1439 H   0  0  0  0  0  0
   -4.0884    3.1890   -1.7389 H   0  0  0  0  0  0
   -3.3268    5.1743   -2.9804 H   0  0  0  0  0  0
   -1.2019    5.1221   -4.2264 H   0  0  0  0  0  0
    0.1882    3.0874   -4.2319 H   0  0  0  0  0  0
   -0.5392    1.0828   -3.0054 H   0  0  0  0  0  0
    3.8374   -1.2847    0.3806 H   0  0  0  0  0  0
    3.8302    0.3371    1.0301 H   0  0  0  0  0  0
    3.5090   -0.5903    3.3355 H   0  0  0  0  0  0
    3.4211   -2.2032    2.6876 H   0  0  0  0  0  0
    5.6533   -1.8654    3.5967 H   0  0  0  0  0  0
    5.7970   -1.9997    1.8553 H   0  0  0  0  0  0
    7.0871   -0.2056    2.7216 H   0  0  0  0  0  0
    5.7596    0.5082    3.3888 H   0  0  0  0  0  0
   -4.9609    3.7966    1.1398 H   0  0  0  0  0  0
   -4.3316    2.3609    3.8332 H   0  0  0  0  0  0
   -3.2619    3.5037    3.0566 H   0  0  0  0  0  0
   -4.5429    4.5371    4.9394 H   0  0  0  0  0  0
   -4.8774    5.3330    3.4233 H   0  0  0  0  0  0
   -6.6560    3.2703    4.8195 H   0  0  0  0  0  0
   -6.9941    4.9695    4.6276 H   0  0  0  0  0  0
   -8.2556    3.4990    2.9378 H   0  0  0  0  0  0
   -7.1952    4.6709    2.1200 H   0  0  0  0  0  0
   -6.9510    2.4899    1.2001 H   0  0  0  0  0  0
    5.8998    0.3965    1.7495 H   0  0  0  0  0  0
   -6.5857    1.8232    2.6345 H   0  0  0  0  0  0
  1  2  1  0  0  0
  1  3  2  0  0  0
  1 24  1  0  0  0
  2  4  1  0  0  0
  2 30  1  0  0  0
  4  5  1  0  0  0
  4 12  1  0  0  0
  4 31  1  0  0  0
  5  6  2  0  0  0
  5  7  1  0  0  0
  7  8  1  0  0  0
  7 32  1  0  0  0
  8  9  1  0  0  0
  8 13  1  0  0  0
  8 33  1  0  0  0
  9 10  1  0  0  0
  9 11  2  0  0  0
 10 34  1  0  0  0
 10 35  1  0  0  0
 12 14  1  0  0  0
 12 36  1  0  0  0
 12 37  1  0  0  0
 13 20  1  0  0  0
 13 38  1  0  0  0
 13 39  1  0  0  0
 14 15  2  0  0  0
 14 19  1  0  0  0
 15 16  1  0  0  0
 15 40  1  0  0  0
 16 17  2  0  0  0
 16 41  1  0  0  0
 17 18  1  0  0  0
 17 42  1  0  0  0
 18 19  2  0  0  0
 18 43  1  0  0  0
 19 44  1  0  0  0
 20 21  1  0  0  0
 20 45  1  0  0  0
 20 46  1  0  0  0
 21 22  1  0  0  0
 21 47  1  0  0  0
 21 48  1  0  0  0
 22 23  1  0  0  0
 22 49  1  0  0  0
 22 50  1  0  0  0
 23 51  1  0  0  0
 23 52  1  0  0  0
 23 63  1  0  0  0
 24 25  1  0  0  0
 24 29  1  0  0  0
 24 53  1  0  0  0
 25 26  1  0  0  0
 25 54  1  0  0  0
 25 55  1  0  0  0
 26 27  1  0  0  0
 26 56  1  0  0  0
 26 57  1  0  0  0
 27 28  1  0  0  0
 27 58  1  0  0  0
 27 59  1  0  0  0
 28 29  1  0  0  0
 28 60  1  0  0  0
 28 61  1  0  0  0
 29 62  1  0  0  0
 29 64  1  0  0  0
M  CHG  2  23   1  29   1
M  END
> <chembl_id>
CHEMBL2382076

> <chembl_pref_name>
None

> <i_m_ct_stereo_status>
1

> <s_m_source_file>
sdf/inactives_sanitized.sdf

> <i_m_source_file_index>
267

> <i_lp_mmshare_version>
49012

> <i_f3d_flags>
0

> <s_epik_input>
W05IXTFbQ0gyXVtDSDJdW0NIMl1bQ0gyXVtDQEhdMUMoPU8pW05IXVtDQEBIXShbQ0gyXWMyW2NIXVtjSF1bY0hdW2NIXVtjSF0yKUMoPU8pW05IXVtDQEhdKEMoPU8pW05IMl0pW0NIMl1bQ0gyXVtDSDJdW0NIMl1bTkgyXQ==

> <s_epik_cmdline>
J2VwaWtfcHl0aG9uJywgJy1waHQnLCAnMC41JywgJy1waCcsICc3LjUnLCAnLW50JywgJy1tYScsICcyMDAnLCAnLWltYWUnLCAnPGluZmlsZS5tYWU+JywgJy1vbWFlJywgJzxvdXRmaWxlLm1hZT4n

> <r_epik_Ionization_Penalty>
  0.3861

> <r_epik_Ionization_Penalty_Charging>
  0.3861

> <r_epik_Ionization_Penalty_Neutral>
  0.0000

> <r_epik_State_Penalty>
  0.3830

> <r_epik_Charging_Adjusted_Penalty>
0.769060136210708

> <i_epik_Tot_Q>
2

> <i_epik_Tot_abs_Q>
2

> <s_lp_Force_Field>
OPLS3e

> <r_lp_Energy>
30.214156

> <b_lp_Chiralities_Consistent>
1

> <s_lp_Variant>
sdf/inactives_sanitized.sdf:267-1

$$$$
sdf/inactives_sanitized.sdf:267
                    3D
 Schrodinger Suite 2020-1.
 63 64  0  0  1  0            999 V2000
   -3.3749    1.9037    1.9864 C   0  0  0  0  0  0
   -3.2132    1.7832    0.6538 N   0  0  0  0  0  0
   -2.8282    1.1324    2.7781 O   0  0  0  0  0  0
   -2.3881    0.7753   -0.0167 C   0  0  2  0  0  0
   -0.8874    1.1102    0.0907 C   0  0  0  0  0  0
   -0.5203    2.2824    0.1930 O   0  0  0  0  0  0
   -0.0529    0.0585    0.0424 N   0  0  0  0  0  0
    1.4094    0.1492    0.0737 C   0  0  2  0  0  0
    1.9729    0.7093   -1.2514 C   0  0  0  0  0  0
    2.8296    1.7302   -1.1597 N   0  0  0  0  0  0
    1.6575    0.1963   -2.3244 O   0  0  0  0  0  0
   -2.8622    0.6474   -1.4853 C   0  0  0  0  0  0
    1.9696   -1.2539    0.4049 C   0  0  0  0  0  0
   -2.5771    1.8254   -2.4081 C   0  0  0  0  0  0
   -3.4111    2.9644   -2.3902 C   0  0  0  0  0  0
   -3.0919    4.0724   -3.1641 C   0  0  0  0  0  0
   -1.9403    4.0759   -3.9412 C   0  0  0  0  0  0
   -1.0939    2.9745   -3.9468 C   0  0  0  0  0  0
   -1.3962    1.8566   -3.1810 C   0  0  0  0  0  0
    3.5058   -1.3331    0.4961 C   0  0  0  0  0  0
    4.0009   -2.7279    0.9060 C   0  0  0  0  0  0
    5.5326   -2.8103    0.9723 C   0  0  0  0  0  0
    5.9827   -4.1606    1.3517 N   0  3  0  0  0  0
   -4.2474    3.0815    2.5015 C   0  0  2  0  0  0
   -4.5566    2.9609    4.0218 C   0  0  0  0  0  0
   -5.5132    4.0642    4.5019 C   0  0  0  0  0  0
   -6.7503    4.1351    3.5941 C   0  0  0  0  0  0
   -6.3677    4.2419    2.1039 C   0  0  0  0  0  0
   -5.4767    3.1559    1.6947 N   0  0  1  0  0  0
   -3.6628    2.4502    0.0445 H   0  0  0  0  0  0
   -2.5638   -0.1828    0.4770 H   0  0  0  0  0  0
   -0.4358   -0.8708   -0.0512 H   0  0  0  0  0  0
    1.6800    0.8175    0.8946 H   0  0  0  0  0  0
    3.0618    2.1236   -0.2595 H   0  0  0  0  0  0
    3.2342    2.1274   -1.9951 H   0  0  0  0  0  0
   -2.4057   -0.2399   -1.9265 H   0  0  0  0  0  0
   -3.9358    0.4535   -1.4992 H   0  0  0  0  0  0
    1.5488   -1.5799    1.3573 H   0  0  0  0  0  0
    1.6208   -1.9711   -0.3401 H   0  0  0  0  0  0
   -4.2997    2.9786   -1.7765 H   0  0  0  0  0  0
   -3.7375    4.9383   -3.1557 H   0  0  0  0  0  0
   -1.6968    4.9433   -4.5370 H   0  0  0  0  0  0
   -0.1934    2.9894   -4.5429 H   0  0  0  0  0  0
   -0.7248    1.0113   -3.1804 H   0  0  0  0  0  0
    3.9526   -1.0728   -0.4640 H   0  0  0  0  0  0
    3.8641   -0.5934    1.2131 H   0  0  0  0  0  0
    3.5782   -2.9900    1.8771 H   0  0  0  0  0  0
    3.6240   -3.4674    0.1979 H   0  0  0  0  0  0
    5.9680   -2.5562    0.0051 H   0  0  0  0  0  0
    5.9202   -2.0942    1.6979 H   0  0  0  0  0  0
    6.9920   -4.1826    1.3855 H   0  0  0  0  0  0
    5.6568   -4.8307    0.6698 H   0  0  0  0  0  0
   -3.6284    3.9600    2.3089 H   0  0  0  0  0  0
   -5.0008    1.9869    4.2383 H   0  0  0  0  0  0
   -3.6337    3.0029    4.6030 H   0  0  0  0  0  0
   -5.8100    3.8855    5.5359 H   0  0  0  0  0  0
   -4.9957    5.0248    4.4891 H   0  0  0  0  0  0
   -7.4012    3.2730    3.7482 H   0  0  0  0  0  0
   -7.3523    5.0009    3.8720 H   0  0  0  0  0  0
   -7.2634    4.2070    1.4832 H   0  0  0  0  0  0
   -5.8742    5.1945    1.9056 H   0  0  0  0  0  0
   -5.2362    3.2823    0.7223 H   0  0  0  0  0  0
    5.6120   -4.3994    2.2604 H   0  0  0  0  0  0
  1  2  1  0  0  0
  1  3  2  0  0  0
  1 24  1  0  0  0
  2  4  1  0  0  0
  2 30  1  0  0  0
  4  5  1  0  0  0
  4 12  1  0  0  0
  4 31  1  0  0  0
  5  6  2  0  0  0
  5  7  1  0  0  0
  7  8  1  0  0  0
  7 32  1  0  0  0
  8  9  1  0  0  0
  8 13  1  0  0  0
  8 33  1  0  0  0
  9 10  1  0  0  0
  9 11  2  0  0  0
 10 34  1  0  0  0
 10 35  1  0  0  0
 12 14  1  0  0  0
 12 36  1  0  0  0
 12 37  1  0  0  0
 13 20  1  0  0  0
 13 38  1  0  0  0
 13 39  1  0  0  0
 14 15  2  0  0  0
 14 19  1  0  0  0
 15 16  1  0  0  0
 15 40  1  0  0  0
 16 17  2  0  0  0
 16 41  1  0  0  0
 17 18  1  0  0  0
 17 42  1  0  0  0
 18 19  2  0  0  0
 18 43  1  0  0  0
 19 44  1  0  0  0
 20 21  1  0  0  0
 20 45  1  0  0  0
 20 46  1  0  0  0
 21 22  1  0  0  0
 21 47  1  0  0  0
 21 48  1  0  0  0
 22 23  1  0  0  0
 22 49  1  0  0  0
 22 50  1  0  0  0
 23 51  1  0  0  0
 23 52  1  0  0  0
 23 63  1  0  0  0
 24 25  1  0  0  0
 24 29  1  0  0  0
 24 53  1  0  0  0
 25 26  1  0  0  0
 25 54  1  0  0  0
 25 55  1  0  0  0
 26 27  1  0  0  0
 26 56  1  0  0  0
 26 57  1  0  0  0
 27 28  1  0  0  0
 27 58  1  0  0  0
 27 59  1  0  0  0
 28 29  1  0  0  0
 28 60  1  0  0  0
 28 61  1  0  0  0
 29 62  1  0  0  0
M  CHG  1  23   1
M  END
> <chembl_id>
CHEMBL2382076

> <chembl_pref_name>
None

> <i_m_ct_stereo_status>
1

> <s_m_source_file>
sdf/inactives_sanitized.sdf

> <i_m_source_file_index>
267

> <i_lp_mmshare_version>
49012

> <i_f3d_flags>
0

> <s_epik_input>
W05IXTFbQ0gyXVtDSDJdW0NIMl1bQ0gyXVtDQEhdMUMoPU8pW05IXVtDQEBIXShbQ0gyXWMyW2NIXVtjSF1bY0hdW2NIXVtjSF0yKUMoPU8pW05IXVtDQEhdKEMoPU8pW05IMl0pW0NIMl1bQ0gyXVtDSDJdW0NIMl1bTkgyXQ==

> <s_epik_cmdline>
J2VwaWtfcHl0aG9uJywgJy1waHQnLCAnMC41JywgJy1waCcsICc3LjUnLCAnLW50JywgJy1tYScsICcyMDAnLCAnLWltYWUnLCAnPGluZmlsZS5tYWU+JywgJy1vbWFlJywgJzxvdXRmaWxlLm1hZT4n

> <r_epik_Ionization_Penalty>
  0.4393

> <r_epik_Ionization_Penalty_Charging>
  0.0014

> <r_epik_Ionization_Penalty_Neutral>
  0.4379

> <r_epik_State_Penalty>
  0.4397

> <r_epik_Charging_Adjusted_Penalty>
0.44114448524692

> <i_epik_Tot_Q>
1

> <i_epik_Tot_abs_Q>
1

> <s_lp_Force_Field>
OPLS3e

> <r_lp_Energy>
22.655033

> <b_lp_Chiralities_Consistent>
1

> <s_lp_Variant>
sdf/inactives_sanitized.sdf:267-2

$$$$
sdf/inactives_sanitized.sdf:268
                    3D
 Schrodinger Suite 2020-1.
 74 76  0  0  1  0            999 V2000
   -3.3382   -3.8564   -7.0346 C   0  0  0  0  0  0
   -3.0466   -2.6080   -7.5793 C   0  0  0  0  0  0
   -2.6276   -1.5734   -6.7469 C   0  0  0  0  0  0
   -2.4969   -1.7867   -5.3720 C   0  0  0  0  0  0
   -2.7987   -3.0436   -4.8320 C   0  0  0  0  0  0
   -3.2172   -4.0783   -5.6648 C   0  0  0  0  0  0
   -2.0455   -0.6216   -4.4965 C   0  0  0  0  0  0
   -1.5017   -1.0642   -3.2552 O   0  0  0  0  0  0
   -1.0517   -0.1779   -2.3460 C   0  0  0  0  0  0
   -0.5860   -0.8716   -1.2343 N   0  0  0  0  0  0
   -1.0563    1.0471   -2.4946 O   0  0  0  0  0  0
   -0.0257   -0.1613   -0.0737 C   0  0  2  0  0  0
    1.4806    0.1520   -0.2552 C   0  0  0  0  0  0
    2.2226   -0.6564   -0.8163 O   0  0  0  0  0  0
    1.8969    1.3072    0.2891 N   0  0  0  0  0  0
    3.2851    1.7603    0.3654 C   0  0  2  0  0  0
    3.4722    2.5581    1.6743 C   0  0  0  0  0  0
    4.5581    2.2779    2.4002 N   0  0  0  0  0  0
    2.6618    3.4259    1.9999 O   0  0  0  0  0  0
   -0.3085   -0.9531    1.2363 C   0  0  0  0  0  0
    3.6118    2.5903   -0.9029 C   0  0  0  0  0  0
    0.1534   -0.2302    2.5045 C   0  0  0  0  0  0
    1.0802   -0.8383    3.3523 C   0  0  0  0  0  0
    1.5714   -0.1491    4.4574 C   0  0  0  0  0  0
    1.1454    1.1560    4.7370 C   0  0  0  0  0  0
    0.1872    1.7413    3.8995 C   0  0  0  0  0  0
   -0.3100    1.0546    2.7964 C   0  0  0  0  0  0
    5.1025    2.9377   -1.0699 C   0  0  0  0  0  0
    5.3821    3.7001   -2.3733 C   0  0  0  0  0  0
    6.8669    4.0460   -2.5500 C   0  0  0  0  0  0
    7.0987    4.7811   -3.8053 N   0  3  0  0  0  0
    1.7104    1.9128    5.8937 C   0  0  0  0  0  0
    1.9357    3.2953    5.8077 C   0  0  0  0  0  0
    2.4722    4.0047    6.8817 C   0  0  0  0  0  0
    2.7925    3.3426    8.0647 C   0  0  0  0  0  0
    2.5759    1.9694    8.1722 C   0  0  0  0  0  0
    2.0404    1.2627    7.0931 C   0  0  0  0  0  0
    2.8927    1.3036    9.3553 N   0  0  0  0  0  0
   -3.6630   -4.6589   -7.6803 H   0  0  0  0  0  0
   -3.1455   -2.4430   -8.6421 H   0  0  0  0  0  0
   -2.4037   -0.6062   -7.1732 H   0  0  0  0  0  0
   -2.7141   -3.2268   -3.7709 H   0  0  0  0  0  0
   -3.4486   -5.0482   -5.2499 H   0  0  0  0  0  0
   -1.2869   -0.0482   -5.0325 H   0  0  0  0  0  0
   -2.8982    0.0357   -4.3188 H   0  0  0  0  0  0
   -0.5921   -1.8812   -1.2347 H   0  0  0  0  0  0
   -0.5624    0.7842    0.0395 H   0  0  0  0  0  0
    1.2231    1.9031    0.7488 H   0  0  0  0  0  0
    3.9344    0.8816    0.3930 H   0  0  0  0  0  0
    5.2024    1.5602    2.1023 H   0  0  0  0  0  0
    4.7326    2.7758    3.2612 H   0  0  0  0  0  0
   -1.3773   -1.1486    1.3374 H   0  0  0  0  0  0
    0.1592   -1.9385    1.1781 H   0  0  0  0  0  0
    3.3005    2.0287   -1.7859 H   0  0  0  0  0  0
    3.0201    3.5079   -0.9152 H   0  0  0  0  0  0
    1.4482   -1.8318    3.1411 H   0  0  0  0  0  0
    2.3120   -0.6301    5.0796 H   0  0  0  0  0  0
   -0.1758    2.7397    4.0947 H   0  0  0  0  0  0
   -1.0374    1.5357    2.1592 H   0  0  0  0  0  0
    5.4383    3.5387   -0.2240 H   0  0  0  0  0  0
    5.6924    2.0206   -1.0494 H   0  0  0  0  0  0
    5.0442    3.1015   -3.2206 H   0  0  0  0  0  0
    4.7887    4.6154   -2.3893 H   0  0  0  0  0  0
    7.2166    4.6566   -1.7166 H   0  0  0  0  0  0
    7.4694    3.1369   -2.5594 H   0  0  0  0  0  0
    8.0821    4.9930   -3.8970 H   0  0  0  0  0  0
    6.5702    5.6420   -3.7959 H   0  0  0  0  0  0
    1.7074    3.8307    4.8976 H   0  0  0  0  0  0
    2.6421    5.0677    6.7953 H   0  0  0  0  0  0
    3.2075    3.9005    8.8918 H   0  0  0  0  0  0
    1.8712    0.1999    7.1921 H   0  0  0  0  0  0
    2.6902    0.3179    9.4386 H   0  0  0  0  0  0
    3.2462    1.8301   10.1410 H   0  0  0  0  0  0
    6.8034    4.2150   -4.5881 H   0  0  0  0  0  0
  1  2  2  0  0  0
  1  6  1  0  0  0
  1 39  1  0  0  0
  2  3  1  0  0  0
  2 40  1  0  0  0
  3  4  2  0  0  0
  3 41  1  0  0  0
  4  5  1  0  0  0
  4  7  1  0  0  0
  5  6  2  0  0  0
  5 42  1  0  0  0
  6 43  1  0  0  0
  7  8  1  0  0  0
  7 44  1  0  0  0
  7 45  1  0  0  0
  8  9  1  0  0  0
  9 10  1  0  0  0
  9 11  2  0  0  0
 10 12  1  0  0  0
 10 46  1  0  0  0
 12 13  1  0  0  0
 12 20  1  0  0  0
 12 47  1  0  0  0
 13 14  2  0  0  0
 13 15  1  0  0  0
 15 16  1  0  0  0
 15 48  1  0  0  0
 16 17  1  0  0  0
 16 21  1  0  0  0
 16 49  1  0  0  0
 17 18  1  0  0  0
 17 19  2  0  0  0
 18 50  1  0  0  0
 18 51  1  0  0  0
 20 22  1  0  0  0
 20 52  1  0  0  0
 20 53  1  0  0  0
 21 28  1  0  0  0
 21 54  1  0  0  0
 21 55  1  0  0  0
 22 23  2  0  0  0
 22 27  1  0  0  0
 23 24  1  0  0  0
 23 56  1  0  0  0
 24 25  2  0  0  0
 24 57  1  0  0  0
 25 26  1  0  0  0
 25 32  1  0  0  0
 26 27  2  0  0  0
 26 58  1  0  0  0
 27 59  1  0  0  0
 28 29  1  0  0  0
 28 60  1  0  0  0
 28 61  1  0  0  0
 29 30  1  0  0  0
 29 62  1  0  0  0
 29 63  1  0  0  0
 30 31  1  0  0  0
 30 64  1  0  0  0
 30 65  1  0  0  0
 31 66  1  0  0  0
 31 67  1  0  0  0
 31 74  1  0  0  0
 32 33  2  0  0  0
 32 37  1  0  0  0
 33 34  1  0  0  0
 33 68  1  0  0  0
 34 35  2  0  0  0
 34 69  1  0  0  0
 35 36  1  0  0  0
 35 70  1  0  0  0
 36 37  2  0  0  0
 36 38  1  0  0  0
 37 71  1  0  0  0
 38 72  1  0  0  0
 38 73  1  0  0  0
M  CHG  1  31   1
M  END
> <chembl_id>
CHEMBL2381999

> <chembl_pref_name>
None

> <i_m_ct_stereo_status>
1

> <s_m_source_file>
sdf/inactives_sanitized.sdf

> <i_m_source_file_index>
268

> <i_lp_mmshare_version>
49012

> <i_f3d_flags>
0

> <s_epik_input>
W2NIXTFbY0hdW2NIXVtjSF1bY0hdYzFbQ0gyXU9DKD1PKVtOSF1bQ0BIXShDKD1PKVtOSF1bQ0BIXShDKD1PKVtOSDJdKVtDSDJdW0NIMl1bQ0gyXVtDSDJdW05IMl0pW0NIMl1jMltjSF1bY0hdYyhbY0hdW2NIXTIpLWMzW2NIXVtjSF1bY0hdYyhbY0hdMylbTkgyXQ==

> <s_epik_cmdline>
J2VwaWtfcHl0aG9uJywgJy1waHQnLCAnMC41JywgJy1waCcsICc3LjUnLCAnLW50JywgJy1tYScsICcyMDAnLCAnLWltYWUnLCAnPGluZmlsZS5tYWU+JywgJy1vbWFlJywgJzxvdXRmaWxlLm1hZT4n

> <r_lp_tautomer_probability>
1

> <r_epik_Ionization_Penalty>
  0.0020

> <r_epik_Ionization_Penalty_Charging>
  0.0014

> <r_epik_Ionization_Penalty_Neutral>
  0.0006

> <r_epik_State_Penalty>
 -0.0000

> <r_epik_Charging_Adjusted_Penalty>
0.00140340395202934

> <i_epik_Tot_Q>
1

> <i_epik_Tot_abs_Q>
1

> <s_epik_Chemistry_Notes>
This compound has an ester and may undergo hydrolysis at high or low pH.

> <s_lp_Force_Field>
OPLS3e

> <r_lp_Energy>
39.153511

> <b_lp_Chiralities_Consistent>
1

> <s_lp_Variant>
sdf/inactives_sanitized.sdf:268-1

$$$$
sdf/inactives_sanitized.sdf:269
                    3D
 Schrodinger Suite 2020-1.
 74 77  0  0  1  0            999 V2000
   -3.6554    3.6204   -4.1628 C   0  0  0  0  0  0
   -2.5678   -1.4123    0.8913 C   0  0  0  0  0  0
   -2.8079   -0.1514    0.9020 N   0  0  0  0  0  0
   -0.2474   -0.3586   -0.6422 N   0  0  0  0  0  0
   -2.4655    0.6960   -0.2397 C   0  0  1  0  0  0
   -0.9310    0.8222   -0.4664 C   0  0  0  0  0  0
   -3.3310    0.4069   -1.5048 C   0  0  0  0  0  0
   -3.3068    1.4684   -2.4580 O   0  0  0  0  0  0
   -0.4059    1.9391   -0.4254 O   0  0  0  0  0  0
   -1.9361   -2.1313   -0.2521 C   0  0  0  0  0  0
   -0.8603   -1.5927   -1.0191 C   0  0  0  0  0  0
   -0.3055   -2.4100   -2.0221 C   0  0  0  0  0  0
   -0.8307   -3.6572   -2.3392 C   0  0  0  0  0  0
   -1.9163   -4.1462   -1.6302 C   0  0  0  0  0  0
   -2.4582   -3.3912   -0.5980 C   0  0  0  0  0  0
   -2.9197   -2.2099    2.0886 C   0  0  0  0  0  0
   -4.1367   -1.9955    2.7529 C   0  0  0  0  0  0
   -4.4638   -2.7469    3.8786 C   0  0  0  0  0  0
   -3.5754   -3.7108    4.3483 C   0  0  0  0  0  0
   -2.3601   -3.9284    3.7046 C   0  0  0  0  0  0
   -2.0311   -3.1786    2.5785 C   0  0  0  0  0  0
   -2.4295    1.4864   -3.4975 C   0  0  0  0  0  0
   -2.5968    2.6120   -4.3026 N   0  0  0  0  0  0
   -1.5825    0.6170   -3.7056 O   0  0  0  0  0  0
    1.2358   -0.2330   -0.7171 C   0  0  0  0  0  0
    1.8746   -0.3249    0.6869 C   0  0  0  0  0  0
    1.1943   -0.4796    1.7050 O   0  0  0  0  0  0
    3.2160   -0.2346    0.7105 N   0  0  0  0  0  0
    4.0478   -0.3227    1.9104 C   0  0  0  0  0  0
    4.1022   -1.7150    2.5182 C   0  0  0  0  0  0
    5.2141   -2.4760    2.5899 C   0  0  0  0  0  0
    5.2687   -3.8165    3.1727 C   0  0  0  0  0  0
    4.0840   -4.2674    3.6593 O   0  0  0  0  0  0
    6.3208   -4.4579    3.2038 O   0  0  0  0  0  0
    3.9834   -5.5537    4.2539 C   0  0  0  0  0  0
   -5.0783    3.1245   -4.5396 C   0  0  0  0  0  0
   -6.1610    4.2178   -4.4489 C   0  0  0  0  0  0
   -5.7717    5.4905   -5.2174 C   0  0  0  0  0  0
   -4.4073    6.0247   -4.7532 C   0  0  0  0  0  0
   -3.2989    4.9583   -4.8561 C   0  0  0  0  0  0
   -3.7012    3.8830   -3.1031 H   0  0  0  0  0  0
   -2.7775    1.6940    0.0742 H   0  0  0  0  0  0
   -3.0795   -0.5422   -1.9780 H   0  0  0  0  0  0
   -4.3707    0.3064   -1.1918 H   0  0  0  0  0  0
    0.5265   -2.0638   -2.6158 H   0  0  0  0  0  0
   -0.3962   -4.2418   -3.1369 H   0  0  0  0  0  0
   -2.3332   -5.1125   -1.8731 H   0  0  0  0  0  0
   -3.2977   -3.8084   -0.0593 H   0  0  0  0  0  0
   -4.8382   -1.2526    2.3997 H   0  0  0  0  0  0
   -5.4034   -2.5823    4.3853 H   0  0  0  0  0  0
   -3.8299   -4.2932    5.2217 H   0  0  0  0  0  0
   -1.6742   -4.6744    4.0779 H   0  0  0  0  0  0
   -1.0801   -3.3548    2.0951 H   0  0  0  0  0  0
   -1.9823    2.7059   -5.0982 H   0  0  0  0  0  0
    1.6863   -1.0138   -1.3248 H   0  0  0  0  0  0
    1.5412    0.7005   -1.1936 H   0  0  0  0  0  0
    3.7084   -0.1632   -0.1682 H   0  0  0  0  0  0
    5.0557   -0.0114    1.6325 H   0  0  0  0  0  0
    3.7038    0.3991    2.6535 H   0  0  0  0  0  0
    3.1596   -2.0772    2.9052 H   0  0  0  0  0  0
    6.1484   -2.0998    2.1981 H   0  0  0  0  0  0
    2.9616   -5.7260    4.5929 H   0  0  0  0  0  0
    4.6462   -5.6401    5.1165 H   0  0  0  0  0  0
    4.2407   -6.3363    3.5386 H   0  0  0  0  0  0
   -5.0607    2.7514   -5.5649 H   0  0  0  0  0  0
   -5.3734    2.2859   -3.9080 H   0  0  0  0  0  0
   -7.1085    3.8316   -4.8272 H   0  0  0  0  0  0
   -6.3337    4.4677   -3.4008 H   0  0  0  0  0  0
   -5.7381    5.2775   -6.2871 H   0  0  0  0  0  0
   -6.5368    6.2558   -5.0816 H   0  0  0  0  0  0
   -4.1335    6.9019   -5.3408 H   0  0  0  0  0  0
   -4.4851    6.3656   -3.7196 H   0  0  0  0  0  0
   -2.3729    5.3621   -4.4433 H   0  0  0  0  0  0
   -3.1162    4.7697   -5.9155 H   0  0  0  0  0  0
  1 23  1  0  0  0
  1 36  1  0  0  0
  1 40  1  0  0  0
  1 41  1  0  0  0
  2  3  2  0  0  0
  2 16  1  0  0  0
  2 10  1  0  0  0
  3  5  1  0  0  0
  4  6  1  0  0  0
  4 25  1  0  0  0
  4 11  1  0  0  0
  5  6  1  0  0  0
  5  7  1  0  0  0
  5 42  1  0  0  0
  6  9  2  0  0  0
  7  8  1  0  0  0
  7 43  1  0  0  0
  7 44  1  0  0  0
  8 22  1  0  0  0
 10 11  2  0  0  0
 10 15  1  0  0  0
 11 12  1  0  0  0
 12 13  2  0  0  0
 12 45  1  0  0  0
 13 14  1  0  0  0
 13 46  1  0  0  0
 14 15  2  0  0  0
 14 47  1  0  0  0
 15 48  1  0  0  0
 16 21  1  0  0  0
 16 17  2  0  0  0
 17 18  1  0  0  0
 17 49  1  0  0  0
 18 19  2  0  0  0
 18 50  1  0  0  0
 19 20  1  0  0  0
 19 51  1  0  0  0
 20 21  2  0  0  0
 20 52  1  0  0  0
 21 53  1  0  0  0
 22 23  1  0  0  0
 22 24  2  0  0  0
 23 54  1  0  0  0
 25 26  1  0  0  0
 25 55  1  0  0  0
 25 56  1  0  0  0
 26 27  2  0  0  0
 26 28  1  0  0  0
 28 29  1  0  0  0
 28 57  1  0  0  0
 29 30  1  0  0  0
 29 58  1  0  0  0
 29 59  1  0  0  0
 30 31  2  0  0  0
 30 60  1  0  0  0
 31 32  1  0  0  0
 31 61  1  0  0  0
 32 33  1  0  0  0
 32 34  2  0  0  0
 33 35  1  0  0  0
 35 62  1  0  0  0
 35 63  1  0  0  0
 35 64  1  0  0  0
 36 37  1  0  0  0
 36 65  1  0  0  0
 36 66  1  0  0  0
 37 38  1  0  0  0
 37 67  1  0  0  0
 37 68  1  0  0  0
 38 39  1  0  0  0
 38 69  1  0  0  0
 38 70  1  0  0  0
 39 40  1  0  0  0
 39 71  1  0  0  0
 39 72  1  0  0  0
 40 73  1  0  0  0
 40 74  1  0  0  0
M  END
> <chembl_id>
CHEMBL1171094

> <chembl_pref_name>
None

> <i_m_ct_stereo_status>
1

> <s_m_source_file>
sdf/inactives_sanitized.sdf

> <i_m_source_file_index>
269

> <i_lp_mmshare_version>
49012

> <i_f3d_flags>
0

> <s_epik_input>
W0NIMl0xW0NIMl1bQ0gyXVtDSDJdW0NIMl1bQ0hdMVtOSF1DKD1PKU9bQ0gyXVtDQEBIXShOPUMyYzNbY0hdW2NIXVtjSF1bY0hdW2NIXTMpQyg9TylOKGMoYzI0KVtjSF1bY0hdW2NIXVtjSF00KVtDSDJdQyg9TylbTkhdW0NIMl0vW0NIXT1bQ0hdL0MoPU8pT1tDSDNd

> <s_epik_cmdline>
J2VwaWtfcHl0aG9uJywgJy1waHQnLCAnMC41JywgJy1waCcsICc3LjUnLCAnLW50JywgJy1tYScsICcyMDAnLCAnLWltYWUnLCAnPGluZmlsZS5tYWU+JywgJy1vbWFlJywgJzxvdXRmaWxlLm1hZT4n

> <r_lp_tautomer_probability>
1

> <r_epik_Ionization_Penalty>
  0.0000

> <r_epik_Ionization_Penalty_Charging>
  0.0000

> <r_epik_Ionization_Penalty_Neutral>
  0.0000

> <r_epik_State_Penalty>
 -0.0000

> <r_epik_Charging_Adjusted_Penalty>
0

> <i_epik_Tot_Q>
0

> <i_epik_Tot_abs_Q>
0

> <s_epik_Chemistry_Notes>
This compound has an ester and may undergo hydrolysis at high or low pH. This compound has an imine and may undergo hydrolysis.

> <s_lp_Force_Field>
OPLS3e

> <r_lp_Energy>
74.348882

> <b_lp_Chiralities_Consistent>
1

> <s_lp_Variant>
sdf/inactives_sanitized.sdf:269-1

$$$$
sdf/inactives_sanitized.sdf:270
                    3D
 Schrodinger Suite 2020-1.
107110  0  0  1  0            999 V2000
   -2.8671    1.6901    1.2536 N   0  0  0  0  0  0
   -2.8587    1.0200    2.4388 C   0  0  0  0  0  0
   -2.4073    1.0824   -0.0075 C   0  0  2  0  0  0
   -0.9116    1.3755   -0.2633 C   0  0  0  0  0  0
    1.7566    0.4571   -1.6016 C   0  0  0  0  0  0
    1.1526   -0.6906   -2.5171 C   0  0  0  0  0  0
   -5.9818    1.4230    3.7301 C   0  0  0  0  0  0
   -4.7458    0.9505    3.9568 N   0  0  0  0  0  0
   -3.4901    1.6657    3.7096 C   0  0  1  0  0  0
   -7.9586    1.0107    5.1430 N   0  0  0  0  0  0
   -7.5993    1.1052    6.4404 C   0  0  0  0  0  0
   -3.5680    2.9524    0.9838 C   0  0  0  0  0  0
   -0.0411    0.4083    0.0961 N   0  0  0  0  0  0
   -7.1414    0.4546    4.0573 C   0  0  1  0  0  0
   -8.6046    1.7372    7.3783 C   0  0  0  0  0  0
   -3.3592    1.6323   -1.0913 C   0  0  2  0  0  0
    1.4257    0.3684   -0.1048 C   0  0  2  0  0  0
   -4.1107    2.8032   -0.4466 C   0  0  1  0  0  0
    1.1949   -0.3752   -3.8252 N   0  0  0  0  0  0
   -2.5756    1.7022    4.9977 C   0  0  0  0  0  0
   -9.8066    2.1578    6.8798 N   0  0  0  0  0  0
   -2.3483   -0.0968    2.5538 O   0  0  0  0  0  0
   -0.5610    2.4334   -0.7888 O   0  0  0  0  0  0
    2.4613    1.3430   -2.0959 O   0  0  0  0  0  0
    0.6909   -1.7265   -2.0352 O   0  0  0  0  0  0
   -6.2305    2.5377    3.2684 O   0  0  0  0  0  0
   -6.5147    0.6994    6.8647 O   0  0  0  0  0  0
   -9.2023    2.4572    9.6074 N   0  0  0  0  0  0
   -7.9830    0.0768    2.7969 C   0  0  0  0  0  0
   -8.3161    1.8939    8.7444 C   0  0  0  0  0  0
   -4.4307    0.6205   -1.5409 C   0  0  0  0  0  0
    0.6668   -1.1992   -4.9154 C   0  0  1  0  0  0
   -5.6066    2.4415   -0.5193 C   0  0  0  0  0  0
   -5.7083    1.4442   -1.6708 C   0  0  0  0  0  0
    2.1956    1.4218    0.7410 C   0  0  0  0  0  0
  -10.6921    2.7215    7.7423 C   0  0  0  0  0  0
   -3.2622    2.5978    6.0642 C   0  0  0  0  0  0
   -1.1961    2.3414    4.6979 C   0  0  0  0  0  0
   -2.3561    0.3095    5.6510 C   0  0  0  0  0  0
  -10.3913    2.8690    9.0972 C   0  0  0  0  0  0
   -9.2139   -0.8078    3.1200 C   0  0  0  0  0  0
   -7.1763   -0.7015    1.7268 C   0  0  0  0  0  0
    0.4320   -0.3655   -6.1953 C   0  0  0  0  0  0
    1.9857    1.2601    2.2582 C   0  0  0  0  0  0
    1.5619   -2.4226   -5.1977 C   0  0  0  0  0  0
   -0.5256    0.8246   -6.0106 C   0  0  0  0  0  0
    2.6640    2.3633    3.0807 C   0  0  0  0  0  0
  -10.1284   -0.9012    1.8799 C   0  0  0  0  0  0
   -7.9952   -0.7774    0.4220 C   0  0  0  0  0  0
   -9.3584   -1.4733    0.6623 C   0  0  0  0  0  0
   -2.4504   -0.0077    0.0428 H   0  0  0  0  0  0
   -4.6420    0.0180    4.3303 H   0  0  0  0  0  0
   -3.7056    2.7121    3.5044 H   0  0  0  0  0  0
   -8.8608    1.3691    4.8652 H   0  0  0  0  0  0
   -4.3743    3.2373    1.6564 H   0  0  0  0  0  0
   -2.8289    3.7539    0.9545 H   0  0  0  0  0  0
   -0.4180   -0.4073    0.5578 H   0  0  0  0  0  0
   -6.7224   -0.4794    4.4413 H   0  0  0  0  0  0
   -2.8224    1.9751   -1.9790 H   0  0  0  0  0  0
    1.7518   -0.6121    0.2468 H   0  0  0  0  0  0
   -3.9248    3.7226   -1.0050 H   0  0  0  0  0  0
    1.5886    0.5164   -4.0898 H   0  0  0  0  0  0
   -8.3423    1.0188    2.3742 H   0  0  0  0  0  0
   -7.3765    1.5733    9.1712 H   0  0  0  0  0  0
   -4.1683    0.1424   -2.4855 H   0  0  0  0  0  0
   -4.5698   -0.1714   -0.8022 H   0  0  0  0  0  0
   -0.3112   -1.5778   -4.6075 H   0  0  0  0  0  0
   -5.9509    1.9842    0.4098 H   0  0  0  0  0  0
   -6.2294    3.3187   -0.6987 H   0  0  0  0  0  0
   -6.6079    0.8320   -1.6216 H   0  0  0  0  0  0
   -5.7211    1.9711   -2.6264 H   0  0  0  0  0  0
    3.2652    1.3493    0.5344 H   0  0  0  0  0  0
    1.8914    2.4279    0.4462 H   0  0  0  0  0  0
  -11.6377    3.0502    7.3370 H   0  0  0  0  0  0
   -2.6741    2.6527    6.9815 H   0  0  0  0  0  0
   -4.2459    2.2205    6.3450 H   0  0  0  0  0  0
   -3.3916    3.6222    5.7115 H   0  0  0  0  0  0
   -1.2940    3.3674    4.3407 H   0  0  0  0  0  0
   -0.6445    1.7782    3.9489 H   0  0  0  0  0  0
   -0.5658    2.3716    5.5878 H   0  0  0  0  0  0
   -1.7197    0.3845    6.5340 H   0  0  0  0  0  0
   -1.8647   -0.3963    4.9835 H   0  0  0  0  0  0
   -3.2937   -0.1385    5.9829 H   0  0  0  0  0  0
  -11.0946    3.3159    9.7843 H   0  0  0  0  0  0
   -8.9116   -1.7849    3.5011 H   0  0  0  0  0  0
   -9.7933   -0.3708    3.9336 H   0  0  0  0  0  0
   -6.2390   -0.1887    1.5099 H   0  0  0  0  0  0
   -6.8657   -1.6811    2.0937 H   0  0  0  0  0  0
    1.3866    0.0088   -6.5688 H   0  0  0  0  0  0
    0.0304   -1.0104   -6.9783 H   0  0  0  0  0  0
    0.9207    1.2604    2.4816 H   0  0  0  0  0  0
    2.3665    0.2893    2.5779 H   0  0  0  0  0  0
    1.1764   -2.9976   -6.0404 H   0  0  0  0  0  0
    1.6012   -3.1024   -4.3458 H   0  0  0  0  0  0
    2.5779   -2.1249   -5.4603 H   0  0  0  0  0  0
   -0.6792    1.3473   -6.9550 H   0  0  0  0  0  0
   -0.1346    1.5494   -5.2957 H   0  0  0  0  0  0
   -1.5014    0.4950   -5.6528 H   0  0  0  0  0  0
    2.4968    2.2099    4.1472 H   0  0  0  0  0  0
    2.2700    3.3469    2.8233 H   0  0  0  0  0  0
    3.7413    2.3784    2.9121 H   0  0  0  0  0  0
  -10.9950   -1.5260    2.0990 H   0  0  0  0  0  0
  -10.5190    0.0878    1.6344 H   0  0  0  0  0  0
   -8.1662    0.2289    0.0374 H   0  0  0  0  0  0
   -7.4321   -1.3101   -0.3450 H   0  0  0  0  0  0
   -9.9751   -1.4032   -0.2345 H   0  0  0  0  0  0
   -9.1855   -2.5385    0.8245 H   0  0  0  0  0  0
  1  2  1  0  0  0
  1  3  1  0  0  0
  1 12  1  0  0  0
  2  9  1  0  0  0
  2 22  2  0  0  0
  3  4  1  0  0  0
  3 16  1  0  0  0
  3 51  1  0  0  0
  4 13  1  0  0  0
  4 23  2  0  0  0
  5 17  1  0  0  0
  5  6  1  0  0  0
  5 24  2  0  0  0
  6 19  1  0  0  0
  6 25  2  0  0  0
  7  8  1  0  0  0
  7 14  1  0  0  0
  7 26  2  0  0  0
  8  9  1  0  0  0
  8 52  1  0  0  0
  9 20  1  0  0  0
  9 53  1  0  0  0
 10 14  1  0  0  0
 10 11  1  0  0  0
 10 54  1  0  0  0
 11 15  1  0  0  0
 11 27  2  0  0  0
 12 18  1  0  0  0
 12 55  1  0  0  0
 12 56  1  0  0  0
 13 17  1  0  0  0
 13 57  1  0  0  0
 14 29  1  0  0  0
 14 58  1  0  0  0
 15 21  2  0  0  0
 15 30  1  0  0  0
 16 31  1  0  0  0
 16 18  1  0  0  0
 16 59  1  0  0  0
 17 35  1  0  0  0
 17 60  1  0  0  0
 18 33  1  0  0  0
 18 61  1  0  0  0
 19 32  1  0  0  0
 19 62  1  0  0  0
 20 37  1  0  0  0
 20 38  1  0  0  0
 20 39  1  0  0  0
 21 36  1  0  0  0
 28 30  2  0  0  0
 28 40  1  0  0  0
 29 41  1  0  0  0
 29 42  1  0  0  0
 29 63  1  0  0  0
 30 64  1  0  0  0
 31 34  1  0  0  0
 31 65  1  0  0  0
 31 66  1  0  0  0
 32 43  1  0  0  0
 32 45  1  0  0  0
 32 67  1  0  0  0
 33 34  1  0  0  0
 33 68  1  0  0  0
 33 69  1  0  0  0
 34 70  1  0  0  0
 34 71  1  0  0  0
 35 44  1  0  0  0
 35 72  1  0  0  0
 35 73  1  0  0  0
 36 40  2  0  0  0
 36 74  1  0  0  0
 37 75  1  0  0  0
 37 76  1  0  0  0
 37 77  1  0  0  0
 38 78  1  0  0  0
 38 79  1  0  0  0
 38 80  1  0  0  0
 39 81  1  0  0  0
 39 82  1  0  0  0
 39 83  1  0  0  0
 40 84  1  0  0  0
 41 48  1  0  0  0
 41 85  1  0  0  0
 41 86  1  0  0  0
 42 49  1  0  0  0
 42 87  1  0  0  0
 42 88  1  0  0  0
 43 46  1  0  0  0
 43 89  1  0  0  0
 43 90  1  0  0  0
 44 47  1  0  0  0
 44 91  1  0  0  0
 44 92  1  0  0  0
 45 93  1  0  0  0
 45 94  1  0  0  0
 45 95  1  0  0  0
 46 96  1  0  0  0
 46 97  1  0  0  0
 46 98  1  0  0  0
 47 99  1  0  0  0
 47100  1  0  0  0
 47101  1  0  0  0
 48 50  1  0  0  0
 48102  1  0  0  0
 48103  1  0  0  0
 49 50  1  0  0  0
 49104  1  0  0  0
 49105  1  0  0  0
 50106  1  0  0  0
 50107  1  0  0  0
M  END
> <chembl_id>
CHEMBL184715

> <chembl_pref_name>
None

> <i_m_ct_stereo_status>
1

> <s_m_source_file>
sdf/inactives_sanitized.sdf

> <i_m_source_file_index>
270

> <i_lp_mmshare_version>
49012

> <i_f3d_flags>
0

> <s_epik_input>
W0NIM11bQ0gyXVtDQEBIXShbQ0gzXSlbTkhdQyg9TylDKD1PKVtDQEBIXShbQ0gyXVtDSDJdW0NIM10pW05IXUMoPU8pW0NASF0xTihbQ0gyXVtDQEBIXShbQ0BASF0xMilbQ0gyXVtDSDJdW0NIMl0yKUMoPU8pW0NASF0oQyhbQ0gzXSkoW0NIM10pW0NIM10pW05IXUMoPU8pW0NASF0oW0NIXTNbQ0gyXVtDSDJdW0NIMl1bQ0gyXVtDSDJdMylbTkhdQyg9TyljNG5bY0hdW2NIXW5bY0hdNA==

> <s_epik_cmdline>
J2VwaWtfcHl0aG9uJywgJy1waHQnLCAnMC41JywgJy1waCcsICc3LjUnLCAnLW50JywgJy1tYScsICcyMDAnLCAnLWltYWUnLCAnPGluZmlsZS5tYWU+JywgJy1vbWFlJywgJzxvdXRmaWxlLm1hZT4n

> <r_lp_tautomer_probability>
1

> <r_epik_Ionization_Penalty>
  0.0000

> <r_epik_Ionization_Penalty_Charging>
  0.0000

> <r_epik_Ionization_Penalty_Neutral>
  0.0000

> <r_epik_State_Penalty>
 -0.0000

> <r_epik_Charging_Adjusted_Penalty>
0

> <i_epik_Tot_Q>
0

> <i_epik_Tot_abs_Q>
0

> <s_lp_Force_Field>
OPLS3e

> <r_lp_Energy>
47.972475

> <b_lp_Chiralities_Consistent>
1

> <s_lp_Variant>
sdf/inactives_sanitized.sdf:270-1

$$$$
sdf/inactives_sanitized.sdf:271
                    3D
 Schrodinger Suite 2020-1.
 65 67  0  0  1  0            999 V2000
   -3.2309    0.4938    2.3634 C   0  0  0  0  0  0
   -3.0745    1.2162    1.1864 N   0  0  0  0  0  0
   -2.7890   -0.6352    2.5935 O   0  0  0  0  0  0
   -2.3082    0.6725    0.0545 C   0  0  2  0  0  0
   -0.7954    0.9700    0.1750 C   0  0  0  0  0  0
   -2.9352    1.1989   -1.2632 C   0  0  0  0  0  0
   -2.3370    0.6523   -2.5521 C   0  0  0  0  0  0
   -0.4153    2.0759    0.5627 O   0  0  0  0  0  0
    0.0309   -0.0158   -0.2129 N   0  0  0  0  0  0
    1.4902    0.0540   -0.1861 C   0  0  2  0  0  0
    2.0255   -0.4137   -1.4767 C   0  0  0  0  0  0
    2.4450   -0.7808   -2.4909 N   0  0  0  0  0  0
   -1.2698    1.3235   -3.1879 C   0  0  0  0  0  0
   -0.6596    0.7621   -4.3017 C   0  0  0  0  0  0
   -1.0790   -0.4722   -4.7815 C   0  0  0  0  0  0
   -2.1035   -1.1618   -4.1448 C   0  0  0  0  0  0
   -2.7246   -0.6185   -3.0277 C   0  0  0  0  0  0
   -3.9435    1.2338    3.2349 O   0  0  0  0  0  0
   -4.2285    0.7477    4.5419 C   0  0  0  0  0  0
   -4.9739    1.8073    5.3351 C   0  0  0  0  0  0
   -6.2696    1.5524    5.7914 C   0  0  0  0  0  0
   -6.9506    2.5219    6.5235 C   0  0  0  0  0  0
   -6.3329    3.7402    6.7986 C   0  0  0  0  0  0
   -5.0398    3.9988    6.3486 C   0  0  0  0  0  0
   -4.3582    3.0304    5.6161 C   0  0  0  0  0  0
    2.0732   -0.6975    1.0278 C   0  0  0  0  0  0
    3.6026   -0.5994    1.1387 C   0  0  0  0  0  0
    4.0210   -1.3182    2.2902 O   0  0  0  0  0  0
    5.4244   -1.2745    2.5182 C   0  0  0  0  0  0
    5.7712   -2.1179    3.7272 C   0  0  0  0  0  0
    7.0208   -2.1990    4.1565 N   0  0  0  0  0  0
    7.0643   -3.0337    5.2597 N   0  0  0  0  0  0
    5.8088   -3.4451    5.4715 N   0  0  0  0  0  0
    4.9603   -2.8968    4.5453 C   0  0  0  0  0  0
    5.4887   -4.3522    6.5731 C   0  0  0  0  0  0
    5.8843   -5.8172    6.3103 C   0  0  0  0  0  0
    6.3686   -6.1365    5.2004 O   0  5  0  0  0  0
    5.6764   -6.6144    7.2506 O   0  0  0  0  0  0
   -3.4440    2.1534    1.1216 H   0  0  0  0  0  0
   -2.4435   -0.4124    0.0126 H   0  0  0  0  0  0
   -4.0019    0.9678   -1.2720 H   0  0  0  0  0  0
   -2.8791    2.2890   -1.2930 H   0  0  0  0  0  0
   -0.3690   -0.9058   -0.4735 H   0  0  0  0  0  0
    1.8205    1.0940   -0.1355 H   0  0  0  0  0  0
   -0.9208    2.2726   -2.8079 H   0  0  0  0  0  0
    0.1506    1.2824   -4.7913 H   0  0  0  0  0  0
   -0.5973   -0.9037   -5.6466 H   0  0  0  0  0  0
   -2.4115   -2.1287   -4.5147 H   0  0  0  0  0  0
   -3.5047   -1.1720   -2.5257 H   0  0  0  0  0  0
   -4.8259   -0.1635    4.4781 H   0  0  0  0  0  0
   -3.3062    0.4950    5.0679 H   0  0  0  0  0  0
   -6.7503    0.6079    5.5809 H   0  0  0  0  0  0
   -7.9530    2.3302    6.8772 H   0  0  0  0  0  0
   -6.8613    4.4914    7.3672 H   0  0  0  0  0  0
   -4.5680    4.9454    6.5672 H   0  0  0  0  0  0
   -3.3553    3.2303    5.2674 H   0  0  0  0  0  0
    1.6291   -0.3026    1.9432 H   0  0  0  0  0  0
    1.7870   -1.7495    0.9776 H   0  0  0  0  0  0
    4.0741   -1.0175    0.2475 H   0  0  0  0  0  0
    3.9018    0.4474    1.2173 H   0  0  0  0  0  0
    5.9469   -1.6481    1.6355 H   0  0  0  0  0  0
    5.7296   -0.2384    2.6760 H   0  0  0  0  0  0
    3.9016   -3.1096    4.5474 H   0  0  0  0  0  0
    5.9986   -3.9910    7.4677 H   0  0  0  0  0  0
    4.4150   -4.2982    6.7576 H   0  0  0  0  0  0
  1  2  1  0  0  0
  1  3  2  0  0  0
  1 18  1  0  0  0
  2  4  1  0  0  0
  2 39  1  0  0  0
  4  5  1  0  0  0
  4  6  1  0  0  0
  4 40  1  0  0  0
  5  8  2  0  0  0
  5  9  1  0  0  0
  6  7  1  0  0  0
  6 41  1  0  0  0
  6 42  1  0  0  0
  7 13  2  0  0  0
  7 17  1  0  0  0
  9 10  1  0  0  0
  9 43  1  0  0  0
 10 11  1  0  0  0
 10 26  1  0  0  0
 10 44  1  0  0  0
 11 12  3  0  0  0
 13 14  1  0  0  0
 13 45  1  0  0  0
 14 15  2  0  0  0
 14 46  1  0  0  0
 15 16  1  0  0  0
 15 47  1  0  0  0
 16 17  2  0  0  0
 16 48  1  0  0  0
 17 49  1  0  0  0
 18 19  1  0  0  0
 19 20  1  0  0  0
 19 50  1  0  0  0
 19 51  1  0  0  0
 20 21  2  0  0  0
 20 25  1  0  0  0
 21 22  1  0  0  0
 21 52  1  0  0  0
 22 23  2  0  0  0
 22 53  1  0  0  0
 23 24  1  0  0  0
 23 54  1  0  0  0
 24 25  2  0  0  0
 24 55  1  0  0  0
 25 56  1  0  0  0
 26 27  1  0  0  0
 26 57  1  0  0  0
 26 58  1  0  0  0
 27 28  1  0  0  0
 27 59  1  0  0  0
 27 60  1  0  0  0
 28 29  1  0  0  0
 29 30  1  0  0  0
 29 61  1  0  0  0
 29 62  1  0  0  0
 30 31  1  0  0  0
 30 34  2  0  0  0
 31 32  2  0  0  0
 32 33  1  0  0  0
 33 34  1  0  0  0
 33 35  1  0  0  0
 34 63  1  0  0  0
 35 36  1  0  0  0
 35 64  1  0  0  0
 35 65  1  0  0  0
 36 37  1  0  0  0
 36 38  2  0  0  0
M  CHG  1  37  -1
M  END
> <chembl_id>
CHEMBL3805078

> <chembl_pref_name>
None

> <i_m_ct_stereo_status>
1

> <s_m_source_file>
sdf/inactives_sanitized.sdf

> <i_m_source_file_index>
271

> <i_lp_mmshare_version>
49012

> <i_f3d_flags>
0

> <s_epik_input>
W2NIXTFbY0hdW2NIXVtjSF1bY0hdYzFbQ0gyXU9DKD1PKVtOSF1bQ0BASF0oW0NIMl1jMltjSF1bY0hdW2NIXVtjSF1bY0hdMilDKD1PKVtOSF1bQ0BIXShDI04pW0NIMl1bQ0gyXU9bQ0gyXWMzbm5uKFtjSF0zKVtDSDJdQyg9TylbT0hd

> <s_epik_cmdline>
J2VwaWtfcHl0aG9uJywgJy1waHQnLCAnMC41JywgJy1waCcsICc3LjUnLCAnLW50JywgJy1tYScsICcyMDAnLCAnLWltYWUnLCAnPGluZmlsZS5tYWU+JywgJy1vbWFlJywgJzxvdXRmaWxlLm1hZT4n

> <r_lp_tautomer_probability>
1

> <r_epik_Ionization_Penalty>
  0.0000

> <r_epik_Ionization_Penalty_Charging>
  0.0000

> <r_epik_Ionization_Penalty_Neutral>
  0.0000

> <r_epik_State_Penalty>
 -0.0000

> <r_epik_Charging_Adjusted_Penalty>
8.41733936262384e-06

> <i_epik_Tot_Q>
-1

> <i_epik_Tot_abs_Q>
1

> <s_epik_Chemistry_Notes>
This compound has an ester and may undergo hydrolysis at high or low pH.

> <s_lp_Force_Field>
OPLS3e

> <r_lp_Energy>
32.442324

> <b_lp_Chiralities_Consistent>
1

> <s_lp_Variant>
sdf/inactives_sanitized.sdf:271-1

$$$$
sdf/inactives_sanitized.sdf:272
                    3D
 Schrodinger Suite 2020-1.
 76 77  0  0  1  0            999 V2000
    1.3483   -1.9799   -1.0266 C   0  0  0  0  0  0
   -0.6590    0.3069   -0.1358 C   0  0  0  0  0  0
   -0.0088   -0.6580    0.5457 N   0  0  0  0  0  0
    2.7680   -2.1548   -1.7134 C   0  0  0  0  0  0
   -2.7722    2.6999   -0.9207 C   0  0  0  0  0  0
   -2.0858    0.6351    0.3719 C   0  0  2  0  0  0
    1.3490   -1.1675    0.2762 C   0  0  1  0  0  0
   -2.9391    1.3538   -0.6012 N   0  0  0  0  0  0
    4.0512    0.1414   -5.9124 N   0  3  0  0  0  0
    0.3357   -2.4594   -1.5501 O   0  0  0  0  0  0
   -0.1702    0.9095   -1.0933 O   0  0  0  0  0  0
   -1.9497    3.4790   -0.4336 O   0  0  0  0  0  0
    3.7923   -1.6887   -1.2118 O   0  0  0  0  0  0
   -3.6691    3.0295   -1.8704 O   0  0  0  0  0  0
   -2.0703    1.2951    1.7882 C   0  0  0  0  0  0
    2.6999   -2.8380   -2.8716 N   0  0  0  0  0  0
   -3.7558    4.3636   -2.3575 C   0  0  0  0  0  0
    3.4152   -1.1384   -5.3295 C   0  0  0  0  0  0
   -4.8431    4.4542   -3.4132 C   0  0  0  0  0  0
    4.4311   -1.8946   -4.4526 C   0  0  0  0  0  0
    3.0404    1.0411   -6.6514 C   0  0  0  0  0  0
    5.1610   -0.1046   -6.9481 C   0  0  0  0  0  0
    1.8667   -2.0352    1.4541 C   0  0  0  0  0  0
   -3.4571    1.5420    2.4308 C   0  0  0  0  0  0
    3.8417   -3.1297   -3.7382 C   0  0  0  0  0  0
   -4.4985    4.6500   -4.7527 C   0  0  0  0  0  0
   -6.1858    4.3497   -3.0403 C   0  0  0  0  0  0
   -3.3219    2.3401    3.7459 C   0  0  0  0  0  0
   -4.2620    0.2379    2.6186 C   0  0  0  0  0  0
    1.9367   -1.2838    2.7949 C   0  0  0  0  0  0
    5.2753    1.2360   -7.6662 C   0  0  0  0  0  0
    3.8601    1.8134   -7.6935 C   0  0  0  0  0  0
   -5.4969    4.7416   -5.7193 C   0  0  0  0  0  0
   -7.1835    4.4402   -4.0077 C   0  0  0  0  0  0
   -6.8345    4.6360   -5.3425 C   0  0  0  0  0  0
   -0.4835   -1.1004    1.3194 H   0  0  0  0  0  0
   -2.5826   -0.3301    0.4774 H   0  0  0  0  0  0
    2.0017   -0.2958    0.1829 H   0  0  0  0  0  0
   -3.5012    0.7904   -1.2223 H   0  0  0  0  0  0
   -1.4957    0.6700    2.4744 H   0  0  0  0  0  0
   -1.5244    2.2382    1.7463 H   0  0  0  0  0  0
    1.7988   -3.1751   -3.1801 H   0  0  0  0  0  0
   -3.9895    5.0527   -1.5437 H   0  0  0  0  0  0
   -2.7987    4.6775   -2.7785 H   0  0  0  0  0  0
    2.5668   -0.7798   -4.7446 H   0  0  0  0  0  0
    3.0527   -1.7291   -6.1724 H   0  0  0  0  0  0
    5.2679   -2.2263   -5.0675 H   0  0  0  0  0  0
    4.8607   -1.2142   -3.7161 H   0  0  0  0  0  0
    2.3184    0.3775   -7.1312 H   0  0  0  0  0  0
    2.5387    1.6562   -5.9030 H   0  0  0  0  0  0
    6.0612   -0.4292   -6.4253 H   0  0  0  0  0  0
    4.8092   -0.9091   -7.5969 H   0  0  0  0  0  0
    1.2254   -2.9092    1.5850 H   0  0  0  0  0  0
    2.8639   -2.4202    1.2351 H   0  0  0  0  0  0
   -4.0277    2.1770    1.7523 H   0  0  0  0  0  0
    3.4671   -3.8251   -4.4908 H   0  0  0  0  0  0
    4.6154   -3.6619   -3.1811 H   0  0  0  0  0  0
   -3.4618    4.7320   -5.0459 H   0  0  0  0  0  0
   -6.4552    4.1999   -2.0046 H   0  0  0  0  0  0
   -3.6280    1.7674    4.6214 H   0  0  0  0  0  0
   -3.9366    3.2401    3.7162 H   0  0  0  0  0  0
   -2.2956    2.6613    3.9264 H   0  0  0  0  0  0
   -3.6305   -0.6476    2.5441 H   0  0  0  0  0  0
   -5.0355    0.1526    1.8548 H   0  0  0  0  0  0
   -4.7652    0.1883    3.5842 H   0  0  0  0  0  0
    2.3390   -1.9258    3.5791 H   0  0  0  0  0  0
    0.9520   -0.9479    3.1209 H   0  0  0  0  0  0
    2.5820   -0.4077    2.7226 H   0  0  0  0  0  0
    5.9467    1.8959   -7.1143 H   0  0  0  0  0  0
    5.6854    1.1202   -8.6703 H   0  0  0  0  0  0
    3.4140    1.6885   -8.6813 H   0  0  0  0  0  0
    3.8673    2.8828   -7.4786 H   0  0  0  0  0  0
   -5.2353    4.8952   -6.7561 H   0  0  0  0  0  0
   -8.2227    4.3603   -3.7244 H   0  0  0  0  0  0
   -7.6084    4.7074   -6.0924 H   0  0  0  0  0  0
    4.4487    0.6670   -5.1459 H   0  0  0  0  0  0
  1  4  1  0  0  0
  1  7  1  0  0  0
  1 10  2  0  0  0
  2  3  1  0  0  0
  2  6  1  0  0  0
  2 11  2  0  0  0
  3  7  1  0  0  0
  3 36  1  0  0  0
  4 13  2  0  0  0
  4 16  1  0  0  0
  5  8  1  0  0  0
  5 12  2  0  0  0
  5 14  1  0  0  0
  6  8  1  0  0  0
  6 15  1  0  0  0
  6 37  1  0  0  0
  7 23  1  0  0  0
  7 38  1  0  0  0
  8 39  1  0  0  0
  9 18  1  0  0  0
  9 21  1  0  0  0
  9 22  1  0  0  0
  9 76  1  0  0  0
 14 17  1  0  0  0
 15 24  1  0  0  0
 15 40  1  0  0  0
 15 41  1  0  0  0
 16 25  1  0  0  0
 16 42  1  0  0  0
 17 19  1  0  0  0
 17 43  1  0  0  0
 17 44  1  0  0  0
 18 20  1  0  0  0
 18 45  1  0  0  0
 18 46  1  0  0  0
 19 26  2  0  0  0
 19 27  1  0  0  0
 20 25  1  0  0  0
 20 47  1  0  0  0
 20 48  1  0  0  0
 21 32  1  0  0  0
 21 49  1  0  0  0
 21 50  1  0  0  0
 22 31  1  0  0  0
 22 51  1  0  0  0
 22 52  1  0  0  0
 23 30  1  0  0  0
 23 53  1  0  0  0
 23 54  1  0  0  0
 24 28  1  0  0  0
 24 29  1  0  0  0
 24 55  1  0  0  0
 25 56  1  0  0  0
 25 57  1  0  0  0
 26 33  1  0  0  0
 26 58  1  0  0  0
 27 34  2  0  0  0
 27 59  1  0  0  0
 28 60  1  0  0  0
 28 61  1  0  0  0
 28 62  1  0  0  0
 29 63  1  0  0  0
 29 64  1  0  0  0
 29 65  1  0  0  0
 30 66  1  0  0  0
 30 67  1  0  0  0
 30 68  1  0  0  0
 31 32  1  0  0  0
 31 69  1  0  0  0
 31 70  1  0  0  0
 32 71  1  0  0  0
 32 72  1  0  0  0
 33 35  2  0  0  0
 33 73  1  0  0  0
 34 35  1  0  0  0
 34 74  1  0  0  0
 35 75  1  0  0  0
M  CHG  1   9   1
M  END
> <chembl_id>
CHEMBL134508

> <chembl_pref_name>
None

> <s_m_source_file>
sdf/inactives_sanitized.sdf

> <i_m_source_file_index>
272

> <i_lp_mmshare_version>
49012

> <i_m_ct_stereo_status>
1

> <i_f3d_flags>
0

> <s_epik_input>
W0NIMl0xW0NIMl1bQ0gyXVtDSDJdTjFbQ0gyXVtDSDJdW0NIMl1bTkhdQyg9TylDKD1PKVtDQEhdKFtDSDJdW0NIM10pW05IXUMoPU8pW0NAQEhdKFtDSDJdW0NIXShbQ0gzXSlbQ0gzXSlbTkhdQyg9TylPW0NIMl1jMltjSF1bY0hdW2NIXVtjSF1bY0hdMg==

> <s_epik_cmdline>
J2VwaWtfcHl0aG9uJywgJy1waHQnLCAnMC41JywgJy1waCcsICc3LjUnLCAnLW50JywgJy1tYScsICcyMDAnLCAnLWltYWUnLCAnPGluZmlsZS5tYWU+JywgJy1vbWFlJywgJzxvdXRmaWxlLm1hZT4n

> <r_lp_tautomer_probability>
1

> <r_epik_Ionization_Penalty>
  0.0027

> <r_epik_Ionization_Penalty_Charging>
  0.0027

> <r_epik_Ionization_Penalty_Neutral>
  0.0000

> <r_epik_State_Penalty>
 -0.0000

> <r_epik_Charging_Adjusted_Penalty>
0.00266831294256608

> <i_epik_Tot_Q>
1

> <i_epik_Tot_abs_Q>
1

> <s_epik_Chemistry_Notes>
This compound has an ester and may undergo hydrolysis at high or low pH.

> <s_lp_Force_Field>
OPLS3e

> <r_lp_Energy>
42.87337

> <b_lp_Chiralities_Consistent>
1

> <s_lp_Variant>
sdf/inactives_sanitized.sdf:272-1

$$$$
sdf/inactives_sanitized.sdf:273
                    3D
 Schrodinger Suite 2020-1.
 43 43  0  0  1  0            999 V2000
   -0.4137    1.4385   -0.3403 N   0  0  0  0  0  0
    0.0037    0.0239   -0.2967 C   0  0  2  0  0  0
   -0.7057   -0.7557    0.8438 C   0  0  0  0  0  0
   -1.2796   -1.9197    0.4977 N   0  0  0  0  0  0
   -0.6937   -0.3110    1.9928 O   0  0  0  0  0  0
    1.5605   -0.0825   -0.1044 C   0  0  2  0  0  0
    2.3219    0.5691   -1.2883 C   0  0  0  0  0  0
   -1.9029   -2.8344    1.4479 C   0  0  0  0  0  0
   -0.9274   -3.4514    2.3643 C   0  0  0  0  0  0
   -0.1609   -3.9363    3.0830 N   0  0  0  0  0  0
   -1.7019    1.8130   -0.7087 C   0  0  0  0  0  0
   -1.7960    3.1551   -0.6505 O   0  0  0  0  0  0
   -2.6171    1.0554   -1.0423 O   0  0  0  0  0  0
   -3.0169    3.8141   -0.9639 C   0  0  0  0  0  0
   -2.8438    5.3119   -0.7915 C   0  0  0  0  0  0
   -2.7072    6.1318   -1.9142 C   0  0  0  0  0  0
   -2.5495    7.5061   -1.7539 C   0  0  0  0  0  0
   -2.5289    8.0537   -0.4725 C   0  0  0  0  0  0
   -2.6645    7.2398    0.6506 C   0  0  0  0  0  0
   -2.8232    5.8655    0.4911 C   0  0  0  0  0  0
    2.1002   -1.5176    0.1323 C   0  0  0  0  0  0
    3.8189    0.7979   -1.0280 C   0  0  0  0  0  0
    0.2728    2.1517   -0.1425 H   0  0  0  0  0  0
   -0.2321   -0.4312   -1.2625 H   0  0  0  0  0  0
   -1.2200   -2.2304   -0.4612 H   0  0  0  0  0  0
    1.8162    0.4938    0.7876 H   0  0  0  0  0  0
    2.2037   -0.0521   -2.1771 H   0  0  0  0  0  0
    1.8811    1.5321   -1.5451 H   0  0  0  0  0  0
   -2.6689   -2.3256    2.0356 H   0  0  0  0  0  0
   -2.3995   -3.6329    0.8968 H   0  0  0  0  0  0
   -3.3203    3.5894   -1.9881 H   0  0  0  0  0  0
   -3.8196    3.4677   -0.3105 H   0  0  0  0  0  0
   -2.7221    5.7078   -2.9079 H   0  0  0  0  0  0
   -2.4439    8.1445   -2.6186 H   0  0  0  0  0  0
   -2.4064    9.1196   -0.3487 H   0  0  0  0  0  0
   -2.6467    7.6722    1.6401 H   0  0  0  0  0  0
   -2.9283    5.2335    1.3611 H   0  0  0  0  0  0
    1.8449   -2.1753   -0.6989 H   0  0  0  0  0  0
    1.7055   -1.9649    1.0445 H   0  0  0  0  0  0
    3.1845   -1.5273    0.2386 H   0  0  0  0  0  0
    4.1911    1.6342   -1.6202 H   0  0  0  0  0  0
    4.4046   -0.0807   -1.2989 H   0  0  0  0  0  0
    4.0177    1.0237    0.0200 H   0  0  0  0  0  0
  1  2  1  0  0  0
  1 11  1  0  0  0
  1 23  1  0  0  0
  2  6  1  0  0  0
  2  3  1  0  0  0
  2 24  1  0  0  0
  3  4  1  0  0  0
  3  5  2  0  0  0
  4  8  1  0  0  0
  4 25  1  0  0  0
  6  7  1  0  0  0
  6 21  1  0  0  0
  6 26  1  0  0  0
  7 22  1  0  0  0
  7 27  1  0  0  0
  7 28  1  0  0  0
  8  9  1  0  0  0
  8 29  1  0  0  0
  8 30  1  0  0  0
  9 10  3  0  0  0
 11 12  1  0  0  0
 11 13  2  0  0  0
 12 14  1  0  0  0
 14 15  1  0  0  0
 14 31  1  0  0  0
 14 32  1  0  0  0
 15 16  2  0  0  0
 15 20  1  0  0  0
 16 17  1  0  0  0
 16 33  1  0  0  0
 17 18  2  0  0  0
 17 34  1  0  0  0
 18 19  1  0  0  0
 18 35  1  0  0  0
 19 20  2  0  0  0
 19 36  1  0  0  0
 20 37  1  0  0  0
 21 38  1  0  0  0
 21 39  1  0  0  0
 21 40  1  0  0  0
 22 41  1  0  0  0
 22 42  1  0  0  0
 22 43  1  0  0  0
M  END
> <chembl_id>
CHEMBL382971

> <chembl_pref_name>
None

> <i_m_ct_stereo_status>
1

> <s_m_source_file>
sdf/inactives_sanitized.sdf

> <i_m_source_file_index>
273

> <i_lp_mmshare_version>
49012

> <i_f3d_flags>
0

> <s_epik_input>
TiNDW0NIMl1bTkhdQyg9TylbQ0BIXShbQ0BASF0oW0NIM10pW0NIMl1bQ0gzXSlbTkhdQyg9TylPW0NIMl1jMVtjSF1bY0hdW2NIXVtjSF1bY0hdMQ==

> <s_epik_cmdline>
J2VwaWtfcHl0aG9uJywgJy1waHQnLCAnMC41JywgJy1waCcsICc3LjUnLCAnLW50JywgJy1tYScsICcyMDAnLCAnLWltYWUnLCAnPGluZmlsZS5tYWU+JywgJy1vbWFlJywgJzxvdXRmaWxlLm1hZT4n

> <r_lp_tautomer_probability>
1

> <r_epik_Ionization_Penalty>
  0.0000

> <r_epik_Ionization_Penalty_Charging>
  0.0000

> <r_epik_Ionization_Penalty_Neutral>
  0.0000

> <r_epik_State_Penalty>
 -0.0000

> <r_epik_Charging_Adjusted_Penalty>
0

> <i_epik_Tot_Q>
0

> <i_epik_Tot_abs_Q>
0

> <s_epik_Chemistry_Notes>
This compound has an ester and may undergo hydrolysis at high or low pH.

> <s_lp_Force_Field>
OPLS3e

> <r_lp_Energy>
21.002455

> <b_lp_Chiralities_Consistent>
1

> <s_lp_Variant>
sdf/inactives_sanitized.sdf:273-1

$$$$
sdf/inactives_sanitized.sdf:274
                    3D
 Schrodinger Suite 2020-1.
 76 77  0  0  1  0            999 V2000
    2.5762    0.8642   -5.6999 C   0  0  0  0  0  0
    1.9117   -0.5341   -5.7031 N   0  3  0  0  0  0
    0.5780   -0.5842   -6.4769 C   0  0  0  0  0  0
    2.8798   -1.6167   -6.2192 C   0  0  0  0  0  0
    3.3107   -1.9050   -0.9006 C   0  0  0  0  0  0
    3.9183   -1.7103   -2.1600 C   0  0  0  0  0  0
    5.2997   -1.7738   -2.2822 C   0  0  0  0  0  0
    6.0903   -2.0049   -1.1634 C   0  0  0  0  0  0
    5.5083   -2.1640    0.0882 C   0  0  0  0  0  0
    4.1284   -2.1030    0.2318 C   0  0  0  0  0  0
   -6.3133    4.4125    5.2923 C   0  0  0  0  0  0
   -6.8523    4.1370    6.5467 C   0  0  0  0  0  0
   -6.5321    2.9562    7.2121 C   0  0  0  0  0  0
   -5.6674    2.0417    6.6165 C   0  0  0  0  0  0
   -5.1248    2.3049    5.3559 C   0  0  0  0  0  0
   -5.4480    3.4984    4.6966 C   0  0  0  0  0  0
   -4.1767    1.2751    4.7471 C   0  0  0  0  0  0
   -4.0076    1.4651    3.3448 O   0  0  0  0  0  0
   -3.2390    0.6292    2.6215 C   0  0  0  0  0  0
   -3.2470    1.0502    1.2965 N   0  0  0  0  0  0
   -2.6358   -0.3464    3.0761 O   0  0  0  0  0  0
   -2.4593    0.3515    0.2651 C   0  0  2  0  0  0
   -0.9382    0.6195    0.3667 C   0  0  0  0  0  0
   -2.9766    0.7673   -1.1399 C   0  0  0  0  0  0
   -4.4529    0.4114   -1.4403 C   0  0  0  0  0  0
   -4.7258   -1.1053   -1.3509 C   0  0  0  0  0  0
   -4.8977    1.0050   -2.7942 C   0  0  0  0  0  0
   -0.5225    1.6845    0.8268 O   0  0  0  0  0  0
   -0.1429   -0.3561   -0.1160 N   0  0  0  0  0  0
    1.3265   -0.3413   -0.2399 C   0  0  2  0  0  0
    1.7906    0.8152   -1.1370 C   0  0  0  0  0  0
    1.8077   -1.7326   -0.7386 C   0  0  0  0  0  0
    1.2886    0.8265   -2.6462 C   0  0  0  0  0  0
    2.5762    1.6771   -0.7348 O   0  0  0  0  0  0
    0.3878    0.0837   -3.0399 O   0  0  0  0  0  0
    1.9746    1.7006   -3.4062 N   0  0  0  0  0  0
    1.7875    1.8832   -4.8449 C   0  0  0  0  0  0
    3.5764    0.7109   -5.2899 H   0  0  0  0  0  0
    2.6632    1.1616   -6.7462 H   0  0  0  0  0  0
    0.7792   -0.2929   -7.5089 H   0  0  0  0  0  0
   -0.1222    0.0958   -5.9943 H   0  0  0  0  0  0
    0.2073   -1.6082   -6.4151 H   0  0  0  0  0  0
    3.1107   -1.3888   -7.2611 H   0  0  0  0  0  0
    2.3743   -2.5781   -6.1193 H   0  0  0  0  0  0
    3.7716   -1.5852   -5.5919 H   0  0  0  0  0  0
    3.3122   -1.5109   -3.0313 H   0  0  0  0  0  0
    5.7618   -1.6350   -3.2483 H   0  0  0  0  0  0
    7.1647   -2.0493   -1.2651 H   0  0  0  0  0  0
    6.1321   -2.3268    0.9547 H   0  0  0  0  0  0
    3.6853   -2.2068    1.2115 H   0  0  0  0  0  0
   -6.5643    5.3319    4.7843 H   0  0  0  0  0  0
   -7.5231    4.8463    7.0085 H   0  0  0  0  0  0
   -6.9520    2.7509    8.1858 H   0  0  0  0  0  0
   -5.4205    1.1273    7.1366 H   0  0  0  0  0  0
   -5.0335    3.7278    3.7260 H   0  0  0  0  0  0
   -3.2113    1.3433    5.2512 H   0  0  0  0  0  0
   -4.5787    0.2763    4.9275 H   0  0  0  0  0  0
   -3.7026    1.9178    1.0542 H   0  0  0  0  0  0
   -2.6175   -0.7235    0.3795 H   0  0  0  0  0  0
   -2.8398    1.8439   -1.2631 H   0  0  0  0  0  0
   -2.3581    0.3058   -1.9126 H   0  0  0  0  0  0
   -5.0694    0.8945   -0.6812 H   0  0  0  0  0  0
   -5.3777   -1.4634   -2.1477 H   0  0  0  0  0  0
   -5.2151   -1.3509   -0.4078 H   0  0  0  0  0  0
   -3.8068   -1.6893   -1.4037 H   0  0  0  0  0  0
   -5.1149    0.2391   -3.5387 H   0  0  0  0  0  0
   -4.1359    1.6542   -3.2275 H   0  0  0  0  0  0
   -5.7994    1.6063   -2.6750 H   0  0  0  0  0  0
   -0.5835   -1.2050   -0.4397 H   0  0  0  0  0  0
    1.7390   -0.2033    0.7623 H   0  0  0  0  0  0
    1.4667   -2.4932   -0.0341 H   0  0  0  0  0  0
    1.3273   -1.9959   -1.6822 H   0  0  0  0  0  0
    2.6889    2.2640   -2.9660 H   0  0  0  0  0  0
    0.7267    1.9038   -5.0949 H   0  0  0  0  0  0
    2.1511    2.8832   -5.0833 H   0  0  0  0  0  0
    1.7074   -0.7621   -4.7394 H   0  0  0  0  0  0
  1  2  1  0  0  0
  1 37  1  0  0  0
  1 38  1  0  0  0
  1 39  1  0  0  0
  2  3  1  0  0  0
  2  4  1  0  0  0
  2 76  1  0  0  0
  3 40  1  0  0  0
  3 41  1  0  0  0
  3 42  1  0  0  0
  4 43  1  0  0  0
  4 44  1  0  0  0
  4 45  1  0  0  0
  5 10  1  0  0  0
  5  6  2  0  0  0
  5 32  1  0  0  0
  6  7  1  0  0  0
  6 46  1  0  0  0
  7  8  2  0  0  0
  7 47  1  0  0  0
  8  9  1  0  0  0
  8 48  1  0  0  0
  9 10  2  0  0  0
  9 49  1  0  0  0
 10 50  1  0  0  0
 11 16  2  0  0  0
 11 12  1  0  0  0
 11 51  1  0  0  0
 12 13  2  0  0  0
 12 52  1  0  0  0
 13 14  1  0  0  0
 13 53  1  0  0  0
 14 15  2  0  0  0
 14 54  1  0  0  0
 15 16  1  0  0  0
 15 17  1  0  0  0
 16 55  1  0  0  0
 17 18  1  0  0  0
 17 56  1  0  0  0
 17 57  1  0  0  0
 18 19  1  0  0  0
 19 20  1  0  0  0
 19 21  2  0  0  0
 20 22  1  0  0  0
 20 58  1  0  0  0
 22 23  1  0  0  0
 22 24  1  0  0  0
 22 59  1  0  0  0
 23 28  2  0  0  0
 23 29  1  0  0  0
 24 25  1  0  0  0
 24 60  1  0  0  0
 24 61  1  0  0  0
 25 26  1  0  0  0
 25 27  1  0  0  0
 25 62  1  0  0  0
 26 63  1  0  0  0
 26 64  1  0  0  0
 26 65  1  0  0  0
 27 66  1  0  0  0
 27 67  1  0  0  0
 27 68  1  0  0  0
 29 30  1  0  0  0
 29 69  1  0  0  0
 30 31  1  0  0  0
 30 32  1  0  0  0
 30 70  1  0  0  0
 31 33  1  0  0  0
 31 34  2  0  0  0
 32 71  1  0  0  0
 32 72  1  0  0  0
 33 35  2  0  0  0
 33 36  1  0  0  0
 36 37  1  0  0  0
 36 73  1  0  0  0
 37 74  1  0  0  0
 37 75  1  0  0  0
M  CHG  1   2   1
M  END
> <chembl_id>
CHEMBL1242933

> <chembl_pref_name>
None

> <i_m_ct_stereo_status>
1

> <s_m_source_file>
sdf/inactives_sanitized.sdf

> <i_m_source_file_index>
274

> <i_lp_mmshare_version>
49012

> <i_f3d_flags>
0

> <s_epik_input>
W0NIM11OKFtDSDNdKVtDSDJdW0NIMl1bTkhdQyg9TylDKD1PKVtDQEhdKFtDSDJdYzFbY0hdW2NIXVtjSF1bY0hdW2NIXTEpW05IXUMoPU8pW0NASF0oW0NIMl1bQ0hdKFtDSDNdKVtDSDNdKVtOSF1DKD1PKU9bQ0gyXWMyW2NIXVtjSF1bY0hdW2NIXVtjSF0y

> <s_epik_cmdline>
J2VwaWtfcHl0aG9uJywgJy1waHQnLCAnMC41JywgJy1waCcsICc3LjUnLCAnLW50JywgJy1tYScsICcyMDAnLCAnLWltYWUnLCAnPGluZmlsZS5tYWU+JywgJy1vbWFlJywgJzxvdXRmaWxlLm1hZT4n

> <r_lp_tautomer_probability>
0.99990000499975

> <r_epik_Ionization_Penalty>
  0.0222

> <r_epik_Ionization_Penalty_Charging>
  0.0221

> <r_epik_Ionization_Penalty_Neutral>
  0.0000

> <r_epik_State_Penalty>
  0.0178

> <r_epik_Charging_Adjusted_Penalty>
0.0399901629942846

> <i_epik_Tot_Q>
1

> <i_epik_Tot_abs_Q>
1

> <s_epik_Chemistry_Notes>
This compound has an ester and may undergo hydrolysis at high or low pH.

> <s_lp_Force_Field>
OPLS3e

> <r_lp_Energy>
47.122701

> <b_lp_Chiralities_Consistent>
1

> <s_lp_Variant>
sdf/inactives_sanitized.sdf:274-1

$$$$
sdf/inactives_sanitized.sdf:275
                    3D
 Schrodinger Suite 2020-1.
 57 58  0  0  1  0            999 V2000
   -1.8687    1.3457   -0.5293 C   0  0  1  0  0  0
   -0.3247    1.2859   -0.4622 C   0  0  0  0  0  0
   -2.2154    2.8052   -0.5559 N   0  3  0  0  0  0
   -2.4529    0.5890   -1.7475 C   0  0  0  0  0  0
   -2.2374   -0.9392   -1.7266 C   0  0  0  0  0  0
   -2.9207   -1.6530   -2.9009 C   0  0  0  0  0  0
    0.3702    2.1181   -1.0512 O   0  0  0  0  0  0
    0.1805    0.2636    0.2508 N   0  0  0  0  0  0
    1.6034   -0.0737    0.3428 C   0  0  2  0  0  0
    2.0814   -0.7764   -0.9221 C   0  0  0  0  0  0
    1.8960   -0.9113    1.6073 C   0  0  0  0  0  0
    1.5395   -0.2071    2.9335 C   0  0  0  0  0  0
    1.8758   -1.0516    4.1536 C   0  0  0  0  0  0
    2.9850   -0.2838   -1.7892 C   0  0  0  0  0  0
    3.4516   -1.2114   -3.2589 S   0  0  0  0  0  0
    5.1753   -1.6019   -2.9643 C   0  0  0  0  0  0
    2.7129   -2.4800   -3.2860 O   0  0  0  0  0  0
    3.3897   -0.2962   -4.4042 O   0  0  0  0  0  0
    6.1763   -0.7550   -3.4475 C   0  0  0  0  0  0
    7.5142   -1.0628   -3.2145 C   0  0  0  0  0  0
    7.8444   -2.2138   -2.5016 C   0  0  0  0  0  0
    6.8489   -3.0605   -2.0177 C   0  0  0  0  0  0
    5.5104   -2.7542   -2.2485 C   0  0  0  0  0  0
    0.9260   -1.9347    4.6748 C   0  0  0  0  0  0
    1.2357   -2.7091    5.7899 C   0  0  0  0  0  0
    2.4934   -2.5982    6.3792 C   0  0  0  0  0  0
    3.4450   -1.7208    5.8637 C   0  0  0  0  0  0
    3.1363   -0.9465    4.7482 C   0  0  0  0  0  0
   -2.3050    0.9771    0.4012 H   0  0  0  0  0  0
   -1.9749    3.2201    0.3330 H   0  0  0  0  0  0
   -3.2055    2.9069   -0.7282 H   0  0  0  0  0  0
   -3.5254    0.7866   -1.7944 H   0  0  0  0  0  0
   -2.0364    0.9989   -2.6700 H   0  0  0  0  0  0
   -1.1717   -1.1690   -1.7583 H   0  0  0  0  0  0
   -2.6167   -1.3514   -0.7907 H   0  0  0  0  0  0
   -2.7481   -2.7287   -2.8552 H   0  0  0  0  0  0
   -2.5358   -1.2981   -3.8577 H   0  0  0  0  0  0
   -3.9992   -1.4910   -2.8918 H   0  0  0  0  0  0
   -0.4586   -0.3973    0.6684 H   0  0  0  0  0  0
    2.1654    0.8571    0.4650 H   0  0  0  0  0  0
    1.6319   -1.7409   -1.1101 H   0  0  0  0  0  0
    1.3606   -1.8608    1.5474 H   0  0  0  0  0  0
    2.9570   -1.1678    1.6225 H   0  0  0  0  0  0
    2.0636    0.7475    3.0050 H   0  0  0  0  0  0
    0.4783    0.0453    2.9624 H   0  0  0  0  0  0
    3.4669    0.6730   -1.6544 H   0  0  0  0  0  0
    5.9237    0.1384   -3.9998 H   0  0  0  0  0  0
    8.2927   -0.4123   -3.5852 H   0  0  0  0  0  0
    8.8825   -2.4518   -2.3221 H   0  0  0  0  0  0
    7.1139   -3.9503   -1.4659 H   0  0  0  0  0  0
    4.7399   -3.4101   -1.8699 H   0  0  0  0  0  0
   -0.0490   -2.0232    4.2180 H   0  0  0  0  0  0
    0.5046   -3.3926    6.1962 H   0  0  0  0  0  0
    2.7333   -3.1988    7.2444 H   0  0  0  0  0  0
    4.4177   -1.6416    6.3268 H   0  0  0  0  0  0
    3.8758   -0.2683    4.3477 H   0  0  0  0  0  0
   -1.6923    3.2485   -1.2982 H   0  0  0  0  0  0
  1  4  1  0  0  0
  1  3  1  0  0  0
  1  2  1  0  0  0
  1 29  1  0  0  0
  2  8  1  0  0  0
  2  7  2  0  0  0
  3 30  1  0  0  0
  3 31  1  0  0  0
  3 57  1  0  0  0
  4  5  1  0  0  0
  4 32  1  0  0  0
  4 33  1  0  0  0
  5  6  1  0  0  0
  5 34  1  0  0  0
  5 35  1  0  0  0
  6 36  1  0  0  0
  6 37  1  0  0  0
  6 38  1  0  0  0
  8  9  1  0  0  0
  8 39  1  0  0  0
  9 10  1  0  0  0
  9 11  1  0  0  0
  9 40  1  0  0  0
 10 14  2  0  0  0
 10 41  1  0  0  0
 11 12  1  0  0  0
 11 42  1  0  0  0
 11 43  1  0  0  0
 12 13  1  0  0  0
 12 44  1  0  0  0
 12 45  1  0  0  0
 13 24  2  0  0  0
 13 28  1  0  0  0
 14 15  1  0  0  0
 14 46  1  0  0  0
 15 16  1  0  0  0
 15 17  2  0  0  0
 15 18  2  0  0  0
 16 19  2  0  0  0
 16 23  1  0  0  0
 19 20  1  0  0  0
 19 47  1  0  0  0
 20 21  2  0  0  0
 20 48  1  0  0  0
 21 22  1  0  0  0
 21 49  1  0  0  0
 22 23  2  0  0  0
 22 50  1  0  0  0
 23 51  1  0  0  0
 24 25  1  0  0  0
 24 52  1  0  0  0
 25 26  2  0  0  0
 25 53  1  0  0  0
 26 27  1  0  0  0
 26 54  1  0  0  0
 27 28  2  0  0  0
 27 55  1  0  0  0
 28 56  1  0  0  0
M  CHG  1   3   1
M  END
> <chembl_id>
CHEMBL514348

> <chembl_pref_name>
None

> <i_m_ct_stereo_status>
1

> <s_m_source_file>
sdf/inactives_sanitized.sdf

> <i_m_source_file_index>
275

> <i_lp_mmshare_version>
49012

> <i_f3d_flags>
0

> <s_epik_input>
W2NIXTFbY0hdW2NIXVtjSF1bY0hdYzFbQ0gyXVtDSDJdW0NASF0oW05IXUMoPU8pW0NAQEhdKFtOSDJdKVtDSDJdW0NIMl1bQ0gzXSkvW0NIXT1bQ0hdL1MoPU8pKD1PKWMyW2NIXVtjSF1bY0hdW2NIXVtjSF0y

> <s_epik_cmdline>
J2VwaWtfcHl0aG9uJywgJy1waHQnLCAnMC41JywgJy1waCcsICc3LjUnLCAnLW50JywgJy1tYScsICcyMDAnLCAnLWltYWUnLCAnPGluZmlsZS5tYWU+JywgJy1vbWFlJywgJzxvdXRmaWxlLm1hZT4n

> <r_epik_Ionization_Penalty>
  0.3287

> <r_epik_Ionization_Penalty_Charging>
  0.3287

> <r_epik_Ionization_Penalty_Neutral>
  0.0000

> <r_epik_State_Penalty>
  0.3237

> <r_epik_Charging_Adjusted_Penalty>
0.652380279381457

> <i_epik_Tot_Q>
1

> <i_epik_Tot_abs_Q>
1

> <s_lp_Force_Field>
OPLS3e

> <r_lp_Energy>
19.297142

> <b_lp_Chiralities_Consistent>
1

> <s_lp_Variant>
sdf/inactives_sanitized.sdf:275-1

$$$$
sdf/inactives_sanitized.sdf:275
                    3D
 Schrodinger Suite 2020-1.
 56 57  0  0  1  0            999 V2000
   -1.9934    1.2580   -0.0182 C   0  0  1  0  0  0
   -0.4493    1.2087    0.0130 C   0  0  0  0  0  0
   -2.4218    2.2679    0.9653 N   0  0  0  0  0  0
   -2.5389    1.5846   -1.4323 C   0  0  0  0  0  0
   -2.1327    0.5847   -2.5381 C   0  0  0  0  0  0
   -2.7876    0.8934   -3.8908 C   0  0  0  0  0  0
    0.2112    2.2351   -0.1664 O   0  0  0  0  0  0
    0.0932   -0.0058    0.2133 N   0  0  0  0  0  0
    1.5253   -0.3057    0.1397 C   0  0  2  0  0  0
    1.9965   -0.3746   -1.3081 C   0  0  0  0  0  0
    1.8644   -1.5992    0.9133 C   0  0  0  0  0  0
    1.5166   -1.5524    2.4160 C   0  0  0  0  0  0
    1.9120   -2.8267    3.1475 C   0  0  0  0  0  0
    2.8751    0.4699   -1.8786 C   0  0  0  0  0  0
    3.3408    0.2859   -3.6069 S   0  0  0  0  0  0
    5.0791   -0.1397   -3.5176 C   0  0  0  0  0  0
    2.6343   -0.8669   -4.1797 O   0  0  0  0  0  0
    3.2385    1.6047   -4.2421 O   0  0  0  0  0  0
    6.0443    0.8709   -3.5239 C   0  0  0  0  0  0
    7.3946    0.5380   -3.4552 C   0  0  0  0  0  0
    7.7730   -0.8011   -3.3810 C   0  0  0  0  0  0
    6.8135   -1.8117   -3.3729 C   0  0  0  0  0  0
    5.4626   -1.4813   -3.4409 C   0  0  0  0  0  0
    1.0211   -3.9021    3.2047 C   0  0  0  0  0  0
    1.3844   -5.0708    3.8692 C   0  0  0  0  0  0
    2.6366   -5.1598    4.4738 C   0  0  0  0  0  0
    3.5296   -4.0915    4.4199 C   0  0  0  0  0  0
    3.1672   -2.9228    3.7550 C   0  0  0  0  0  0
   -2.4076    0.2925    0.2793 H   0  0  0  0  0  0
   -3.4079    2.4682    0.8798 H   0  0  0  0  0  0
   -2.2631    1.9513    1.9110 H   0  0  0  0  0  0
   -3.6287    1.6100   -1.3790 H   0  0  0  0  0  0
   -2.2351    2.5925   -1.7232 H   0  0  0  0  0  0
   -1.0497    0.5887   -2.6699 H   0  0  0  0  0  0
   -2.4034   -0.4274   -2.2347 H   0  0  0  0  0  0
   -2.4742    0.1739   -4.6476 H   0  0  0  0  0  0
   -2.5117    1.8869   -4.2458 H   0  0  0  0  0  0
   -3.8753    0.8504   -3.8243 H   0  0  0  0  0  0
   -0.5250   -0.7978    0.3117 H   0  0  0  0  0  0
    2.0643    0.4978    0.6507 H   0  0  0  0  0  0
    1.5672   -1.1744   -1.8941 H   0  0  0  0  0  0
    1.3529   -2.4454    0.4505 H   0  0  0  0  0  0
    2.9320   -1.8020    0.8085 H   0  0  0  0  0  0
    2.0075   -0.7001    2.8895 H   0  0  0  0  0  0
    0.4480   -1.3833    2.5580 H   0  0  0  0  0  0
    3.3365    1.2859   -1.3427 H   0  0  0  0  0  0
    5.7539    1.9099   -3.5804 H   0  0  0  0  0  0
    8.1451    1.3147   -3.4598 H   0  0  0  0  0  0
    8.8207   -1.0583   -3.3290 H   0  0  0  0  0  0
    7.1163   -2.8469   -3.3145 H   0  0  0  0  0  0
    4.7207   -2.2665   -3.4327 H   0  0  0  0  0  0
    0.0507   -3.8343    2.7345 H   0  0  0  0  0  0
    0.6990   -5.9043    3.9156 H   0  0  0  0  0  0
    2.9180   -6.0664    4.9893 H   0  0  0  0  0  0
    4.4983   -4.1698    4.8914 H   0  0  0  0  0  0
    3.8612   -2.0958    3.7121 H   0  0  0  0  0  0
  1  4  1  0  0  0
  1  3  1  0  0  0
  1  2  1  0  0  0
  1 29  1  0  0  0
  2  8  1  0  0  0
  2  7  2  0  0  0
  3 30  1  0  0  0
  3 31  1  0  0  0
  4  5  1  0  0  0
  4 32  1  0  0  0
  4 33  1  0  0  0
  5  6  1  0  0  0
  5 34  1  0  0  0
  5 35  1  0  0  0
  6 36  1  0  0  0
  6 37  1  0  0  0
  6 38  1  0  0  0
  8  9  1  0  0  0
  8 39  1  0  0  0
  9 10  1  0  0  0
  9 11  1  0  0  0
  9 40  1  0  0  0
 10 14  2  0  0  0
 10 41  1  0  0  0
 11 12  1  0  0  0
 11 42  1  0  0  0
 11 43  1  0  0  0
 12 13  1  0  0  0
 12 44  1  0  0  0
 12 45  1  0  0  0
 13 24  2  0  0  0
 13 28  1  0  0  0
 14 15  1  0  0  0
 14 46  1  0  0  0
 15 16  1  0  0  0
 15 17  2  0  0  0
 15 18  2  0  0  0
 16 19  2  0  0  0
 16 23  1  0  0  0
 19 20  1  0  0  0
 19 47  1  0  0  0
 20 21  2  0  0  0
 20 48  1  0  0  0
 21 22  1  0  0  0
 21 49  1  0  0  0
 22 23  2  0  0  0
 22 50  1  0  0  0
 23 51  1  0  0  0
 24 25  1  0  0  0
 24 52  1  0  0  0
 25 26  2  0  0  0
 25 53  1  0  0  0
 26 27  1  0  0  0
 26 54  1  0  0  0
 27 28  2  0  0  0
 27 55  1  0  0  0
 28 56  1  0  0  0
M  END
> <chembl_id>
CHEMBL514348

> <chembl_pref_name>
None

> <i_m_ct_stereo_status>
1

> <s_m_source_file>
sdf/inactives_sanitized.sdf

> <i_m_source_file_index>
275

> <i_lp_mmshare_version>
49012

> <i_f3d_flags>
0

> <s_epik_input>
W2NIXTFbY0hdW2NIXVtjSF1bY0hdYzFbQ0gyXVtDSDJdW0NASF0oW05IXUMoPU8pW0NAQEhdKFtOSDJdKVtDSDJdW0NIMl1bQ0gzXSkvW0NIXT1bQ0hdL1MoPU8pKD1PKWMyW2NIXVtjSF1bY0hdW2NIXVtjSF0y

> <s_epik_cmdline>
J2VwaWtfcHl0aG9uJywgJy1waHQnLCAnMC41JywgJy1waCcsICc3LjUnLCAnLW50JywgJy1tYScsICcyMDAnLCAnLWltYWUnLCAnPGluZmlsZS5tYWU+JywgJy1vbWFlJywgJzxvdXRmaWxlLm1hZT4n

> <r_epik_Ionization_Penalty>
  0.5058

> <r_epik_Ionization_Penalty_Charging>
  0.0000

> <r_epik_Ionization_Penalty_Neutral>
  0.5058

> <r_epik_State_Penalty>
  0.5127

> <r_epik_Charging_Adjusted_Penalty>
0.512697452776715

> <i_epik_Tot_Q>
0

> <i_epik_Tot_abs_Q>
0

> <s_lp_Force_Field>
OPLS3e

> <r_lp_Energy>
21.444583

> <b_lp_Chiralities_Consistent>
1

> <s_lp_Variant>
sdf/inactives_sanitized.sdf:275-2

$$$$
sdf/inactives_sanitized.sdf:276
                    3D
 Schrodinger Suite 2020-1.
 30 31  0  0  1  0            999 V2000
   -0.6839   -1.2149   -0.0881 N   0  0  0  0  0  0
   -0.0480   -0.0189   -0.0668 C   0  0  0  0  0  0
   -0.7202    1.1957    0.0271 C   0  0  0  0  0  0
   -2.1097    1.1901    0.0709 C   0  0  0  0  0  0
   -2.8239   -0.0415    0.0256 C   0  0  0  0  0  0
   -4.2519   -0.1205    0.0619 C   0  0  0  0  0  0
   -4.8660   -1.3729    0.0556 C   0  0  0  0  0  0
   -4.1226   -2.5426   -0.0069 C   0  0  0  0  0  0
   -2.7321   -2.5081   -0.0622 C   0  0  0  0  0  0
   -2.0525   -1.2494   -0.0439 C   0  0  0  0  0  0
    1.4515   -0.0589   -0.0997 C   0  0  0  0  0  0
    2.0683   -0.0555    0.9675 O   0  0  0  0  0  0
    2.0496   -0.0833   -1.3187 N   0  0  0  0  0  0
   -5.1029    1.0826    0.1017 N   0  3  0  0  0  0
   -5.9447    1.1573    0.9911 O   0  0  0  0  0  0
   -4.9499    1.9292   -0.7727 O   0  5  0  0  0  0
    3.5019    0.0428   -1.4632 C   0  0  0  0  0  0
   -2.1093   -3.6177   -0.1260 O   0  5  0  0  0  0
    1.3184   -0.0220   -2.5899 C   0  0  0  0  0  0
    1.1437    1.3631   -3.0587 C   0  0  0  0  0  0
    1.0068    2.4514   -3.4266 N   0  0  0  0  0  0
   -0.1817    2.1324    0.0609 H   0  0  0  0  0  0
   -2.6376    2.1283    0.1471 H   0  0  0  0  0  0
   -5.9438   -1.4424    0.0883 H   0  0  0  0  0  0
   -4.6450   -3.4891   -0.0165 H   0  0  0  0  0  0
    4.0370   -0.0388   -0.5160 H   0  0  0  0  0  0
    3.7521    1.0062   -1.9083 H   0  0  0  0  0  0
    3.8792   -0.7400   -2.1217 H   0  0  0  0  0  0
    0.3246   -0.4633   -2.5157 H   0  0  0  0  0  0
    1.8484   -0.5872   -3.3573 H   0  0  0  0  0  0
  1  2  2  0  0  0
  1 10  1  0  0  0
  2  3  1  0  0  0
  2 11  1  0  0  0
  3  4  2  0  0  0
  3 22  1  0  0  0
  4  5  1  0  0  0
  4 23  1  0  0  0
  5  6  2  0  0  0
  5 10  1  0  0  0
  6  7  1  0  0  0
  6 14  1  0  0  0
  7  8  2  0  0  0
  7 24  1  0  0  0
  8  9  1  0  0  0
  8 25  1  0  0  0
  9 10  2  0  0  0
  9 18  1  0  0  0
 11 12  2  0  0  0
 11 13  1  0  0  0
 13 17  1  0  0  0
 13 19  1  0  0  0
 14 15  2  0  0  0
 14 16  1  0  0  0
 17 26  1  0  0  0
 17 27  1  0  0  0
 17 28  1  0  0  0
 19 20  1  0  0  0
 19 29  1  0  0  0
 19 30  1  0  0  0
 20 21  3  0  0  0
M  CHG  3  14   1  16  -1  18  -1
M  END
> <chembl_id>
CHEMBL4226557

> <chembl_pref_name>
None

> <s_m_source_file>
sdf/inactives_sanitized.sdf

> <i_m_source_file_index>
276

> <i_lp_mmshare_version>
49012

> <i_m_ct_stereo_status>
1

> <i_f3d_flags>
0

> <s_epik_input>
TiNDW0NIMl1OKFtDSDNdKUMoPU8pYyhbY0hdW2NIXTEpbmMoYzEyKWMoW09IXSlbY0hdW2NIXWMyW04rXSg9TylbTy1d

> <s_epik_cmdline>
J2VwaWtfcHl0aG9uJywgJy1waHQnLCAnMC41JywgJy1waCcsICc3LjUnLCAnLW50JywgJy1tYScsICcyMDAnLCAnLWltYWUnLCAnPGluZmlsZS5tYWU+JywgJy1vbWFlJywgJzxvdXRmaWxlLm1hZT4n

> <r_lp_tautomer_probability>
1

> <r_epik_Ionization_Penalty>
  0.0001

> <r_epik_Ionization_Penalty_Charging>
  0.0001

> <r_epik_Ionization_Penalty_Neutral>
  0.0000

> <r_epik_State_Penalty>
 -0.0000

> <r_epik_Charging_Adjusted_Penalty>
0.000134703271632523

> <i_epik_Tot_Q>
-1

> <i_epik_Tot_abs_Q>
3

> <s_lp_Force_Field>
OPLS3e

> <r_lp_Energy>
38.220072

> <b_lp_Chiralities_Consistent>
1

> <s_lp_Variant>
sdf/inactives_sanitized.sdf:276-1

$$$$
sdf/inactives_sanitized.sdf:277
                    3D
 Schrodinger Suite 2020-1.
 76 77  0  0  1  0            999 V2000
    1.9284    1.2407   -1.9500 C   0  0  0  0  0  0
   -0.9954    1.4253   -0.8803 C   0  0  0  0  0  0
   -0.0580    0.4952   -0.6004 N   0  0  0  0  0  0
    1.4587    0.5936   -3.3275 C   0  0  0  0  0  0
   -3.8564    2.9984   -1.2573 C   0  0  0  0  0  0
   -2.4586    0.9777   -0.6411 C   0  0  2  0  0  0
    1.4166    0.6053   -0.6501 C   0  0  1  0  0  0
   -3.4602    1.6803   -1.4734 N   0  0  0  0  0  0
    3.4019   -2.5351   -6.4994 N   0  0  0  0  0  0
    2.7082    2.1970   -1.9423 O   0  0  0  0  0  0
   -0.7424    2.5641   -1.2759 O   0  0  0  0  0  0
   -3.4939    3.7411   -0.3420 O   0  0  0  0  0  0
    0.7158   -0.3887   -3.3651 O   0  0  0  0  0  0
   -4.7130    3.3494   -2.2346 O   0  0  0  0  0  0
   -2.8195    0.9482    0.8774 C   0  0  0  0  0  0
    1.9660    1.2388   -4.3952 N   0  0  0  0  0  0
    5.2923   -4.6727   -6.6646 O   0  0  0  0  0  0
   -5.2729    4.6550   -2.2829 C   0  0  0  0  0  0
    2.6777   -1.5150   -5.7355 C   0  0  0  0  0  0
   -6.2109    4.7536   -3.4714 C   0  0  0  0  0  0
    2.7237   -0.1139   -6.3862 C   0  0  0  0  0  0
    3.1051   -3.8723   -5.9690 C   0  0  0  0  0  0
    4.8490   -2.2795   -6.5696 C   0  0  0  0  0  0
    2.1183   -0.7540   -0.3920 C   0  0  0  0  0  0
   -4.2253    0.3991    1.2234 C   0  0  0  0  0  0
    1.7165    0.8958   -5.7967 C   0  0  0  0  0  0
    3.9011   -4.9684   -6.7083 C   0  0  0  0  0  0
    5.5982   -3.4270   -7.2811 C   0  0  0  0  0  0
   -7.5867    4.5965   -3.2877 C   0  0  0  0  0  0
   -5.6933    4.9941   -4.7465 C   0  0  0  0  0  0
   -4.5251    0.5581    2.7296 C   0  0  0  0  0  0
   -4.4304   -1.0520    0.7383 C   0  0  0  0  0  0
    1.7530   -1.3969    0.9570 C   0  0  0  0  0  0
   -8.4455    4.6792   -4.3809 C   0  0  0  0  0  0
   -6.5529    5.0766   -5.8390 C   0  0  0  0  0  0
   -7.9247    4.9185   -5.6512 C   0  0  0  0  0  0
   -0.3853   -0.3506   -0.1565 H   0  0  0  0  0  0
   -2.5154   -0.0512   -0.9990 H   0  0  0  0  0  0
    1.6857    1.2576    0.1833 H   0  0  0  0  0  0
   -3.6780    1.2690   -2.3692 H   0  0  0  0  0  0
   -2.0853    0.3414    1.4110 H   0  0  0  0  0  0
   -2.7153    1.9490    1.2979 H   0  0  0  0  0  0
    2.5595    2.0394   -4.2302 H   0  0  0  0  0  0
   -5.8164    4.8752   -1.3623 H   0  0  0  0  0  0
   -4.4873    5.4070   -2.3758 H   0  0  0  0  0  0
    1.6333   -1.8075   -5.6135 H   0  0  0  0  0  0
    3.0867   -1.4644   -4.7246 H   0  0  0  0  0  0
    3.7157    0.3136   -6.2318 H   0  0  0  0  0  0
    2.5995   -0.1920   -7.4675 H   0  0  0  0  0  0
    3.3354   -3.9049   -4.9023 H   0  0  0  0  0  0
    2.0348   -4.0671   -6.0517 H   0  0  0  0  0  0
    5.0375   -1.3391   -7.0875 H   0  0  0  0  0  0
    5.2457   -2.1537   -5.5606 H   0  0  0  0  0  0
    1.8751   -1.4660   -1.1824 H   0  0  0  0  0  0
    3.2018   -0.6229   -0.4219 H   0  0  0  0  0  0
   -4.9586    1.0176    0.7049 H   0  0  0  0  0  0
    1.7304    1.8142   -6.3845 H   0  0  0  0  0  0
    0.7047    0.4954   -5.8937 H   0  0  0  0  0  0
    3.7344   -5.9342   -6.2314 H   0  0  0  0  0  0
    3.5634   -5.0694   -7.7415 H   0  0  0  0  0  0
    6.6739   -3.2626   -7.2190 H   0  0  0  0  0  0
    5.3505   -3.4562   -8.3439 H   0  0  0  0  0  0
   -7.9900    4.4079   -2.3032 H   0  0  0  0  0  0
   -4.6291    5.1131   -4.8912 H   0  0  0  0  0  0
   -4.6182   -0.3982    3.2444 H   0  0  0  0  0  0
   -5.4584    1.1010    2.8823 H   0  0  0  0  0  0
   -3.7435    1.1159    3.2462 H   0  0  0  0  0  0
   -3.4844   -1.5484    0.5214 H   0  0  0  0  0  0
   -5.0253   -1.0687   -0.1753 H   0  0  0  0  0  0
   -4.9543   -1.6698    1.4675 H   0  0  0  0  0  0
    2.3003   -2.3287    1.1031 H   0  0  0  0  0  0
    0.6894   -1.6301    1.0171 H   0  0  0  0  0  0
    1.9987   -0.7361    1.7891 H   0  0  0  0  0  0
   -9.5099    4.5570   -4.2446 H   0  0  0  0  0  0
   -6.1581    5.2613   -6.8273 H   0  0  0  0  0  0
   -8.5910    4.9814   -6.4990 H   0  0  0  0  0  0
  1  4  1  0  0  0
  1  7  1  0  0  0
  1 10  2  0  0  0
  2  3  1  0  0  0
  2  6  1  0  0  0
  2 11  2  0  0  0
  3  7  1  0  0  0
  3 37  1  0  0  0
  4 13  2  0  0  0
  4 16  1  0  0  0
  5  8  1  0  0  0
  5 12  2  0  0  0
  5 14  1  0  0  0
  6  8  1  0  0  0
  6 15  1  0  0  0
  6 38  1  0  0  0
  7 24  1  0  0  0
  7 39  1  0  0  0
  8 40  1  0  0  0
  9 19  1  0  0  0
  9 22  1  0  0  0
  9 23  1  0  0  0
 14 18  1  0  0  0
 15 25  1  0  0  0
 15 41  1  0  0  0
 15 42  1  0  0  0
 16 26  1  0  0  0
 16 43  1  0  0  0
 17 28  1  0  0  0
 17 27  1  0  0  0
 18 20  1  0  0  0
 18 44  1  0  0  0
 18 45  1  0  0  0
 19 21  1  0  0  0
 19 46  1  0  0  0
 19 47  1  0  0  0
 20 29  2  0  0  0
 20 30  1  0  0  0
 21 26  1  0  0  0
 21 48  1  0  0  0
 21 49  1  0  0  0
 22 27  1  0  0  0
 22 50  1  0  0  0
 22 51  1  0  0  0
 23 28  1  0  0  0
 23 52  1  0  0  0
 23 53  1  0  0  0
 24 33  1  0  0  0
 24 54  1  0  0  0
 24 55  1  0  0  0
 25 31  1  0  0  0
 25 32  1  0  0  0
 25 56  1  0  0  0
 26 57  1  0  0  0
 26 58  1  0  0  0
 27 59  1  0  0  0
 27 60  1  0  0  0
 28 61  1  0  0  0
 28 62  1  0  0  0
 29 34  1  0  0  0
 29 63  1  0  0  0
 30 35  2  0  0  0
 30 64  1  0  0  0
 31 65  1  0  0  0
 31 66  1  0  0  0
 31 67  1  0  0  0
 32 68  1  0  0  0
 32 69  1  0  0  0
 32 70  1  0  0  0
 33 71  1  0  0  0
 33 72  1  0  0  0
 33 73  1  0  0  0
 34 36  2  0  0  0
 34 74  1  0  0  0
 35 36  1  0  0  0
 35 75  1  0  0  0
 36 76  1  0  0  0
M  END
> <chembl_id>
CHEMBL134002

> <chembl_pref_name>
None

> <s_m_source_file>
sdf/inactives_sanitized.sdf

> <i_m_source_file_index>
277

> <i_lp_mmshare_version>
49012

> <i_m_ct_stereo_status>
1

> <i_f3d_flags>
0

> <s_epik_input>
W0NIMl0xW0NIMl1PW0NIMl1bQ0gyXU4xW0NIMl1bQ0gyXVtDSDJdW05IXUMoPU8pQyg9TylbQ0BIXShbQ0gyXVtDSDNdKVtOSF1DKD1PKVtDQEBIXShbQ0gyXVtDSF0oW0NIM10pW0NIM10pW05IXUMoPU8pT1tDSDJdYzJbY0hdW2NIXVtjSF1bY0hdW2NIXTI=

> <s_epik_cmdline>
J2VwaWtfcHl0aG9uJywgJy1waHQnLCAnMC41JywgJy1waCcsICc3LjUnLCAnLW50JywgJy1tYScsICcyMDAnLCAnLWltYWUnLCAnPGluZmlsZS5tYWU+JywgJy1vbWFlJywgJzxvdXRmaWxlLm1hZT4n

> <r_lp_tautomer_probability>
0.99990000499975

> <r_epik_Ionization_Penalty>
  0.1906

> <r_epik_Ionization_Penalty_Charging>
  0.0000

> <r_epik_Ionization_Penalty_Neutral>
  0.1906

> <r_epik_State_Penalty>
  0.1802

> <r_epik_Charging_Adjusted_Penalty>
0.18023018386228

> <i_epik_Tot_Q>
0

> <i_epik_Tot_abs_Q>
0

> <s_epik_Chemistry_Notes>
This compound has an ester and may undergo hydrolysis at high or low pH.

> <s_lp_Force_Field>
OPLS3e

> <r_lp_Energy>
37.133514

> <b_lp_Chiralities_Consistent>
1

> <s_lp_Variant>
sdf/inactives_sanitized.sdf:277-1

$$$$
sdf/inactives_sanitized.sdf:278
                    3D
 Schrodinger Suite 2020-1.
 83 86  0  0  1  0            999 V2000
   -1.3892   -6.4692   -6.2776 N   0  0  0  0  0  0
   -0.3283   -6.6272   -5.5246 C   0  0  0  0  0  0
    0.7145   -5.8669   -5.9135 N   0  0  0  0  0  0
    0.2968   -5.1672   -7.0100 C   0  0  0  0  0  0
    0.9751   -4.2728   -7.7711 N   0  0  0  0  0  0
    0.2088   -3.7971   -8.7657 C   0  0  0  0  0  0
   -1.0640   -4.0888   -9.0703 N   0  0  0  0  0  0
   -1.7161   -4.9927   -8.2885 C   0  0  0  0  0  0
   -1.0154   -5.5679   -7.2023 C   0  0  0  0  0  0
   -3.0384   -5.3092   -8.5942 N   0  0  0  0  0  0
    3.3213   -0.7914    1.3298 C   0  0  0  0  0  0
    4.1654   -1.8006    0.8194 C   0  0  0  0  0  0
    5.5424   -1.6915    0.9622 C   0  0  0  0  0  0
    6.0955   -0.5776    1.5817 C   0  0  0  0  0  0
    5.2785    0.4426    2.0533 C   0  0  0  0  0  0
    3.8990    0.3526    1.9199 C   0  0  0  0  0  0
   -4.9157    3.7950    7.0371 C   0  0  0  0  0  0
   -6.3087    3.7573    7.0589 C   0  0  0  0  0  0
   -7.0046    2.7810    6.3484 C   0  0  0  0  0  0
   -6.3013    1.8329    5.6095 C   0  0  0  0  0  0
   -4.9051    1.8662    5.5856 C   0  0  0  0  0  0
   -4.2116    2.8472    6.2986 C   0  0  0  0  0  0
   -4.1386    0.8316    4.7832 C   0  0  0  0  0  0
   -3.9356    1.3111    3.4596 O   0  0  0  0  0  0
   -3.2380    0.5855    2.5645 C   0  0  0  0  0  0
   -3.1788    1.2875    1.3652 N   0  0  0  0  0  0
   -2.7363   -0.5191    2.7902 O   0  0  0  0  0  0
   -2.4106    0.7726    0.2169 C   0  0  2  0  0  0
   -0.8791    0.8998    0.4042 C   0  0  0  0  0  0
   -2.8581    1.5144   -1.0726 C   0  0  0  0  0  0
   -4.3308    1.2844   -1.4906 C   0  0  0  0  0  0
   -4.6337   -0.2002   -1.7896 C   0  0  0  0  0  0
   -4.7243    2.2088   -2.6634 C   0  0  0  0  0  0
   -0.4068    1.8241    1.0692 O   0  0  0  0  0  0
   -0.1367   -0.0284   -0.2234 N   0  0  0  0  0  0
    1.3286   -0.1086   -0.1877 C   0  0  2  0  0  0
    1.7711   -0.7634   -1.4962 C   0  0  0  0  0  0
    1.8226   -0.8492    1.0862 C   0  0  0  0  0  0
    1.2179   -2.2198   -1.8397 C   0  0  0  0  0  0
    2.5645   -0.2070   -2.2604 O   0  0  0  0  0  0
    0.4402   -2.8160   -1.0928 O   0  0  0  0  0  0
    1.6905   -2.6842   -3.0106 N   0  0  0  0  0  0
    1.3396   -3.9782   -3.5865 C   0  0  0  0  0  0
    2.3505   -4.4341   -4.6548 C   0  0  0  0  0  0
    2.0419   -5.8139   -5.2742 C   0  0  0  0  0  0
   -0.2522   -7.2820   -4.6685 H   0  0  0  0  0  0
    0.6854   -3.0759   -9.4132 H   0  0  0  0  0  0
   -3.5323   -5.9804   -8.0237 H   0  0  0  0  0  0
   -3.4819   -4.8665   -9.3858 H   0  0  0  0  0  0
    3.7438   -2.6600    0.3187 H   0  0  0  0  0  0
    6.1856   -2.4718    0.5832 H   0  0  0  0  0  0
    7.1677   -0.4985    1.6864 H   0  0  0  0  0  0
    5.7179    1.3129    2.5181 H   0  0  0  0  0  0
    3.2711    1.1587    2.2711 H   0  0  0  0  0  0
   -4.3847    4.5555    7.5907 H   0  0  0  0  0  0
   -6.8544    4.4925    7.6323 H   0  0  0  0  0  0
   -8.0842    2.7595    6.3708 H   0  0  0  0  0  0
   -6.8402    1.0760    5.0580 H   0  0  0  0  0  0
   -3.1316    2.8762    6.2808 H   0  0  0  0  0  0
   -3.1834    0.6267    5.2708 H   0  0  0  0  0  0
   -4.6949   -0.1075    4.7697 H   0  0  0  0  0  0
   -3.5527    2.2240    1.3189 H   0  0  0  0  0  0
   -2.6426   -0.2879    0.0922 H   0  0  0  0  0  0
   -2.6849    2.5850   -0.9428 H   0  0  0  0  0  0
   -2.2233    1.2189   -1.9109 H   0  0  0  0  0  0
   -4.9606    1.5780   -0.6498 H   0  0  0  0  0  0
   -5.2394   -0.3360   -2.6857 H   0  0  0  0  0  0
   -5.1850   -0.6519   -0.9644 H   0  0  0  0  0  0
   -3.7232   -0.7832   -1.9310 H   0  0  0  0  0  0
   -4.9423    1.6592   -3.5792 H   0  0  0  0  0  0
   -3.9352    2.9208   -2.9079 H   0  0  0  0  0  0
   -5.6130    2.7901   -2.4153 H   0  0  0  0  0  0
   -0.6010   -0.7559   -0.7484 H   0  0  0  0  0  0
    1.7341    0.9066   -0.1763 H   0  0  0  0  0  0
    1.3339   -0.4165    1.9608 H   0  0  0  0  0  0
    1.5002   -1.8909    1.0918 H   0  0  0  0  0  0
    2.3151   -2.1007   -3.5489 H   0  0  0  0  0  0
    1.2704   -4.7459   -2.8126 H   0  0  0  0  0  0
    0.3385   -3.9193   -4.0170 H   0  0  0  0  0  0
    2.4150   -3.6847   -5.4450 H   0  0  0  0  0  0
    3.3449   -4.4772   -4.2081 H   0  0  0  0  0  0
    2.7571   -6.0837   -6.0526 H   0  0  0  0  0  0
    2.0561   -6.5997   -4.5166 H   0  0  0  0  0  0
  1  9  1  0  0  0
  1  2  2  0  0  0
  2  3  1  0  0  0
  2 46  1  0  0  0
  3  4  1  0  0  0
  3 45  1  0  0  0
  4  5  2  0  0  0
  4  9  1  0  0  0
  5  6  1  0  0  0
  6  7  2  0  0  0
  6 47  1  0  0  0
  7  8  1  0  0  0
  8  9  2  0  0  0
  8 10  1  0  0  0
 10 48  1  0  0  0
 10 49  1  0  0  0
 11 16  1  0  0  0
 11 12  2  0  0  0
 11 38  1  0  0  0
 12 13  1  0  0  0
 12 50  1  0  0  0
 13 14  2  0  0  0
 13 51  1  0  0  0
 14 15  1  0  0  0
 14 52  1  0  0  0
 15 16  2  0  0  0
 15 53  1  0  0  0
 16 54  1  0  0  0
 17 22  2  0  0  0
 17 18  1  0  0  0
 17 55  1  0  0  0
 18 19  2  0  0  0
 18 56  1  0  0  0
 19 20  1  0  0  0
 19 57  1  0  0  0
 20 21  2  0  0  0
 20 58  1  0  0  0
 21 22  1  0  0  0
 21 23  1  0  0  0
 22 59  1  0  0  0
 23 24  1  0  0  0
 23 60  1  0  0  0
 23 61  1  0  0  0
 24 25  1  0  0  0
 25 26  1  0  0  0
 25 27  2  0  0  0
 26 28  1  0  0  0
 26 62  1  0  0  0
 28 29  1  0  0  0
 28 30  1  0  0  0
 28 63  1  0  0  0
 29 34  2  0  0  0
 29 35  1  0  0  0
 30 31  1  0  0  0
 30 64  1  0  0  0
 30 65  1  0  0  0
 31 32  1  0  0  0
 31 33  1  0  0  0
 31 66  1  0  0  0
 32 67  1  0  0  0
 32 68  1  0  0  0
 32 69  1  0  0  0
 33 70  1  0  0  0
 33 71  1  0  0  0
 33 72  1  0  0  0
 35 36  1  0  0  0
 35 73  1  0  0  0
 36 37  1  0  0  0
 36 38  1  0  0  0
 36 74  1  0  0  0
 37 39  1  0  0  0
 37 40  2  0  0  0
 38 75  1  0  0  0
 38 76  1  0  0  0
 39 41  2  0  0  0
 39 42  1  0  0  0
 42 43  1  0  0  0
 42 77  1  0  0  0
 43 44  1  0  0  0
 43 78  1  0  0  0
 43 79  1  0  0  0
 44 45  1  0  0  0
 44 80  1  0  0  0
 44 81  1  0  0  0
 45 82  1  0  0  0
 45 83  1  0  0  0
M  END
> <chembl_id>
CHEMBL1240872

> <chembl_pref_name>
None

> <i_m_ct_stereo_status>
1

> <s_m_source_file>
sdf/inactives_sanitized.sdf

> <i_m_source_file_index>
278

> <i_lp_mmshare_version>
49012

> <i_f3d_flags>
0

> <s_epik_input>
bjFbY0hdbmMoW05IMl0pYyhjMTIpbltjSF1uMltDSDJdW0NIMl1bQ0gyXVtOSF1DKD1PKUMoPU8pW0NASF0oW0NIMl1jM1tjSF1bY0hdW2NIXVtjSF1bY0hdMylbTkhdQyg9TylbQ0BIXShbQ0gyXVtDSF0oW0NIM10pW0NIM10pW05IXUMoPU8pT1tDSDJdYzRbY0hdW2NIXVtjSF1bY0hdW2NIXTQ=

> <s_epik_cmdline>
J2VwaWtfcHl0aG9uJywgJy1waHQnLCAnMC41JywgJy1waCcsICc3LjUnLCAnLW50JywgJy1tYScsICcyMDAnLCAnLWltYWUnLCAnPGluZmlsZS5tYWU+JywgJy1vbWFlJywgJzxvdXRmaWxlLm1hZT4n

> <r_lp_tautomer_probability>
1

> <r_epik_Ionization_Penalty>
  0.0003

> <r_epik_Ionization_Penalty_Charging>
  0.0000

> <r_epik_Ionization_Penalty_Neutral>
  0.0003

> <r_epik_State_Penalty>
 -0.0000

> <r_epik_Charging_Adjusted_Penalty>
0

> <i_epik_Tot_Q>
0

> <i_epik_Tot_abs_Q>
0

> <s_epik_Chemistry_Notes>
This compound has an ester and may undergo hydrolysis at high or low pH.

> <s_lp_Force_Field>
OPLS3e

> <r_lp_Energy>
53.037635

> <b_lp_Chiralities_Consistent>
1

> <s_lp_Variant>
sdf/inactives_sanitized.sdf:278-1

$$$$
sdf/inactives_sanitized.sdf:279
                    3D
 Schrodinger Suite 2020-1.
 58 61  0  0  1  0            999 V2000
    6.6477   -1.7083    4.0709 C   0  0  0  0  0  0
    8.3347   -1.6200    3.5902 S   0  0  0  0  0  0
    5.8004   -2.7279    3.4797 C   0  0  0  0  0  0
   -0.6383    0.4656    0.7318 C   0  0  0  0  0  0
    6.3664   -0.8601    5.1334 C   0  0  0  0  0  0
   -0.2252   -0.5219   -0.3687 C   0  0  2  0  0  0
    4.4561   -2.4919    3.3939 N   0  0  0  0  0  0
    1.1705   -0.9686   -0.1994 N   0  0  0  0  0  0
    1.6936   -1.6407    0.8467 C   0  0  0  0  0  0
    0.2795    1.7456    0.9682 C   0  0  0  0  0  0
    8.6280   -0.3221    4.7351 C   0  0  0  0  0  0
    7.4638   -0.0360    5.5058 C   0  0  0  0  0  0
    3.2243   -1.8905    0.8137 C   0  0  0  0  0  0
   -1.6645    0.3033    1.3972 O   0  0  0  0  0  0
   -0.4163    0.0586   -1.7952 C   0  0  0  0  0  0
    6.3150   -3.7807    3.0910 O   0  0  0  0  0  0
    3.8766   -1.1412    3.2339 C   0  0  0  0  0  0
    3.5771   -3.5373    2.8349 C   0  0  0  0  0  0
    1.0052   -2.0268    1.7930 O   0  0  0  0  0  0
    1.2651    1.9899    0.2740 O   0  0  0  0  0  0
    3.8975   -0.8196    1.7199 C   0  0  0  0  0  0
    3.5331   -3.3398    1.2964 C   0  0  0  0  0  0
   -0.1360    2.5062    1.9871 N   0  0  0  0  0  0
   -1.8578    0.2715   -2.2288 C   0  0  0  0  0  0
    9.8303    0.3721    4.9354 C   0  0  0  0  0  0
    7.5432    0.9631    6.4920 C   0  0  0  0  0  0
   -2.6301   -0.8177   -2.6851 C   0  0  0  0  0  0
   -2.4861    1.5191   -2.0259 C   0  0  0  0  0  0
    8.7416    1.6498    6.6828 C   0  0  0  0  0  0
    9.8655    1.3598    5.9161 C   0  0  0  0  0  0
   -3.8296    1.6793   -2.3383 C   0  0  0  0  0  0
   -3.9724   -0.6370   -2.9920 C   0  0  0  0  0  0
   -4.5675    0.6074   -2.8249 C   0  0  0  0  0  0
    5.4117   -0.8192    5.6366 H   0  0  0  0  0  0
   -0.8490   -1.4163   -0.3006 H   0  0  0  0  0  0
    1.7917   -0.7000   -0.9489 H   0  0  0  0  0  0
    3.4905   -1.7602   -0.2375 H   0  0  0  0  0  0
    0.1332    0.9933   -1.9173 H   0  0  0  0  0  0
    0.0431   -0.6174   -2.5186 H   0  0  0  0  0  0
    2.8498   -1.1923    3.5985 H   0  0  0  0  0  0
    4.3185   -0.3702    3.8585 H   0  0  0  0  0  0
    3.8650   -4.5379    3.1614 H   0  0  0  0  0  0
    2.5891   -3.3939    3.2729 H   0  0  0  0  0  0
    3.4981    0.1743    1.5077 H   0  0  0  0  0  0
    4.9155   -0.6593    1.3617 H   0  0  0  0  0  0
    2.8716   -4.0582    0.8088 H   0  0  0  0  0  0
    4.4711   -3.6526    0.8353 H   0  0  0  0  0  0
   -0.9562    2.2434    2.5144 H   0  0  0  0  0  0
    0.3657    3.3471    2.2324 H   0  0  0  0  0  0
   10.7096    0.1478    4.3492 H   0  0  0  0  0  0
    6.6838    1.2046    7.0996 H   0  0  0  0  0  0
   -2.1801   -1.7933   -2.7990 H   0  0  0  0  0  0
   -1.9247    2.3528   -1.6296 H   0  0  0  0  0  0
    8.7997    2.4192    7.4390 H   0  0  0  0  0  0
   10.7809    1.9074    6.0872 H   0  0  0  0  0  0
   -4.3043    2.6387   -2.1947 H   0  0  0  0  0  0
   -4.5581   -1.4690   -3.3538 H   0  0  0  0  0  0
   -5.6128    0.7391   -3.0625 H   0  0  0  0  0  0
  1  2  1  0  0  0
  1  3  1  0  0  0
  1  5  2  0  0  0
  2 11  1  0  0  0
  3  7  1  0  0  0
  3 16  2  0  0  0
  4  6  1  0  0  0
  4 10  1  0  0  0
  4 14  2  0  0  0
  5 12  1  0  0  0
  5 34  1  0  0  0
  6  8  1  0  0  0
  6 15  1  0  0  0
  6 35  1  0  0  0
  7 17  1  0  0  0
  7 18  1  0  0  0
  8  9  1  0  0  0
  8 36  1  0  0  0
  9 13  1  0  0  0
  9 19  2  0  0  0
 10 20  2  0  0  0
 10 23  1  0  0  0
 11 25  2  0  0  0
 11 12  1  0  0  0
 12 26  2  0  0  0
 13 22  1  0  0  0
 13 21  1  0  0  0
 13 37  1  0  0  0
 15 24  1  0  0  0
 15 38  1  0  0  0
 15 39  1  0  0  0
 17 21  1  0  0  0
 17 40  1  0  0  0
 17 41  1  0  0  0
 18 22  1  0  0  0
 18 42  1  0  0  0
 18 43  1  0  0  0
 21 44  1  0  0  0
 21 45  1  0  0  0
 22 46  1  0  0  0
 22 47  1  0  0  0
 23 48  1  0  0  0
 23 49  1  0  0  0
 24 27  2  0  0  0
 24 28  1  0  0  0
 25 30  1  0  0  0
 25 50  1  0  0  0
 26 29  1  0  0  0
 26 51  1  0  0  0
 27 32  1  0  0  0
 27 52  1  0  0  0
 28 31  2  0  0  0
 28 53  1  0  0  0
 29 30  2  0  0  0
 29 54  1  0  0  0
 30 55  1  0  0  0
 31 33  1  0  0  0
 31 56  1  0  0  0
 32 33  2  0  0  0
 32 57  1  0  0  0
 33 58  1  0  0  0
M  END
> <chembl_id>
CHEMBL407974

> <chembl_pref_name>
None

> <s_m_source_file>
sdf/inactives_sanitized.sdf

> <i_m_source_file_index>
279

> <i_lp_mmshare_version>
49012

> <i_m_ct_stereo_status>
1

> <i_f3d_flags>
0

> <s_epik_input>
W2NIXTFbY0hdW2NIXVtjSF1jKGMxMilbY0hdYyhzMilDKD1PKU4zW0NIMl1bQ0gyXVtDSF0oW0NIMl1bQ0gyXTMpQyg9TylbTkhdW0NAQEhdKEMoPU8pQyg9TylbTkgyXSlbQ0gyXWM0W2NIXVtjSF1bY0hdW2NIXVtjSF00

> <s_epik_cmdline>
J2VwaWtfcHl0aG9uJywgJy1waHQnLCAnMC41JywgJy1waCcsICc3LjUnLCAnLW50JywgJy1tYScsICcyMDAnLCAnLWltYWUnLCAnPGluZmlsZS5tYWU+JywgJy1vbWFlJywgJzxvdXRmaWxlLm1hZT4n

> <r_lp_tautomer_probability>
1

> <r_epik_Ionization_Penalty>
  0.0000

> <r_epik_Ionization_Penalty_Charging>
  0.0000

> <r_epik_Ionization_Penalty_Neutral>
  0.0000

> <r_epik_State_Penalty>
 -0.0000

> <r_epik_Charging_Adjusted_Penalty>
0

> <i_epik_Tot_Q>
0

> <i_epik_Tot_abs_Q>
0

> <s_lp_Force_Field>
OPLS3e

> <r_lp_Energy>
49.162686

> <b_lp_Chiralities_Consistent>
1

> <s_lp_Variant>
sdf/inactives_sanitized.sdf:279-1

$$$$
sdf/inactives_sanitized.sdf:280
                    3D
 Schrodinger Suite 2020-1.
 61 64  0  0  1  0            999 V2000
   -0.6599    1.6748   -0.2850 C   0  0  0  0  0  0
    6.5973   -0.4158   -3.0301 C   0  0  0  0  0  0
   -0.3956    0.1664   -0.2903 C   0  0  2  0  0  0
    5.2623   -0.2401   -3.2585 N   0  0  0  0  0  0
    1.0561   -0.0989   -0.2986 N   0  0  0  0  0  0
    1.9271   -0.0747   -1.3299 C   0  0  0  0  0  0
    7.2614   -1.6999   -3.4800 C   0  0  0  0  0  0
   -0.3420    2.5115   -1.5864 C   0  0  0  0  0  0
    8.2601   -2.2758   -2.6861 C   0  0  0  0  0  0
    3.4211   -0.3128   -0.9841 C   0  0  0  0  0  0
   -1.0962    2.2602    0.7085 O   0  0  0  0  0  0
   -1.1880   -0.6670   -1.3391 C   0  0  0  0  0  0
    8.9198   -3.4633   -3.0887 C   0  0  0  0  0  0
    7.2973    0.4457   -2.4898 O   0  0  0  0  0  0
    4.3103   -1.3689   -3.2169 C   0  0  0  0  0  0
    4.6249    1.0386   -2.8883 C   0  0  0  0  0  0
    1.5782    0.1192   -2.4946 O   0  0  0  0  0  0
    6.9429   -2.2909   -4.7083 C   0  0  0  0  0  0
   -0.7271    2.1735   -2.7031 O   0  0  0  0  0  0
    4.2301    0.9535   -1.3908 C   0  0  0  0  0  0
    3.9128   -1.5849   -1.7348 C   0  0  0  0  0  0
    8.5664   -4.0673   -4.3330 C   0  0  0  0  0  0
    7.5715   -3.4579   -5.1332 C   0  0  0  0  0  0
    0.3782    3.6051   -1.3166 N   0  0  0  0  0  0
   -2.6852   -0.7585   -1.0960 C   0  0  0  0  0  0
    9.9221   -4.0682   -2.2892 C   0  0  0  0  0  0
    9.2249   -5.2565   -4.7347 C   0  0  0  0  0  0
   -3.1944   -1.6622   -0.1395 C   0  0  0  0  0  0
   -3.5633    0.1675   -1.6988 C   0  0  0  0  0  0
   10.5495   -5.2370   -2.7128 C   0  0  0  0  0  0
   10.2037   -5.8261   -3.9244 C   0  0  0  0  0  0
   -4.9185    0.1364   -1.3985 C   0  0  0  0  0  0
   -4.5530   -1.6768    0.1479 C   0  0  0  0  0  0
   -5.4115   -0.7855   -0.4835 C   0  0  0  0  0  0
   -0.7149   -0.2031    0.6861 H   0  0  0  0  0  0
    1.4407   -0.2709    0.6193 H   0  0  0  0  0  0
    8.5379   -1.8261   -1.7427 H   0  0  0  0  0  0
    3.4291   -0.4604    0.0980 H   0  0  0  0  0  0
   -1.0151   -0.3122   -2.3543 H   0  0  0  0  0  0
   -0.7953   -1.6850   -1.3472 H   0  0  0  0  0  0
    3.4428   -1.0716   -3.8067 H   0  0  0  0  0  0
    4.6572   -2.2692   -3.7195 H   0  0  0  0  0  0
    3.7392    1.1506   -3.5146 H   0  0  0  0  0  0
    5.2447    1.8972   -3.1514 H   0  0  0  0  0  0
    6.2012   -1.8427   -5.3544 H   0  0  0  0  0  0
    5.1096    1.0099   -0.7481 H   0  0  0  0  0  0
    3.7290    1.8606   -1.0474 H   0  0  0  0  0  0
    3.1978   -2.4015   -1.6178 H   0  0  0  0  0  0
    4.7381   -2.0158   -1.1660 H   0  0  0  0  0  0
    7.3050   -3.9009   -6.0821 H   0  0  0  0  0  0
    0.6483    3.8165   -0.3670 H   0  0  0  0  0  0
    0.6481    4.2298   -2.0621 H   0  0  0  0  0  0
   10.1976   -3.6174   -1.3466 H   0  0  0  0  0  0
    8.9637   -5.7198   -5.6754 H   0  0  0  0  0  0
   -2.5310   -2.3457    0.3701 H   0  0  0  0  0  0
   -3.1865    0.8995   -2.3983 H   0  0  0  0  0  0
   11.3112   -5.6902   -2.0955 H   0  0  0  0  0  0
   10.6993   -6.7326   -4.2394 H   0  0  0  0  0  0
   -5.5902    0.8371   -1.8724 H   0  0  0  0  0  0
   -4.9425   -2.3779    0.8712 H   0  0  0  0  0  0
   -6.4665   -0.8015   -0.2523 H   0  0  0  0  0  0
  1  3  1  0  0  0
  1  8  1  0  0  0
  1 11  2  0  0  0
  2  4  1  0  0  0
  2  7  1  0  0  0
  2 14  2  0  0  0
  3  5  1  0  0  0
  3 12  1  0  0  0
  3 35  1  0  0  0
  4 15  1  0  0  0
  4 16  1  0  0  0
  5  6  1  0  0  0
  5 36  1  0  0  0
  6 10  1  0  0  0
  6 17  2  0  0  0
  7  9  2  0  0  0
  7 18  1  0  0  0
  8 19  2  0  0  0
  8 24  1  0  0  0
  9 13  1  0  0  0
  9 37  1  0  0  0
 10 20  1  0  0  0
 10 21  1  0  0  0
 10 38  1  0  0  0
 12 25  1  0  0  0
 12 39  1  0  0  0
 12 40  1  0  0  0
 13 26  2  0  0  0
 13 22  1  0  0  0
 15 21  1  0  0  0
 15 41  1  0  0  0
 15 42  1  0  0  0
 16 20  1  0  0  0
 16 43  1  0  0  0
 16 44  1  0  0  0
 18 23  2  0  0  0
 18 45  1  0  0  0
 20 46  1  0  0  0
 20 47  1  0  0  0
 21 48  1  0  0  0
 21 49  1  0  0  0
 22 23  1  0  0  0
 22 27  2  0  0  0
 23 50  1  0  0  0
 24 51  1  0  0  0
 24 52  1  0  0  0
 25 28  2  0  0  0
 25 29  1  0  0  0
 26 30  1  0  0  0
 26 53  1  0  0  0
 27 31  1  0  0  0
 27 54  1  0  0  0
 28 33  1  0  0  0
 28 55  1  0  0  0
 29 32  2  0  0  0
 29 56  1  0  0  0
 30 31  2  0  0  0
 30 57  1  0  0  0
 31 58  1  0  0  0
 32 34  1  0  0  0
 32 59  1  0  0  0
 33 34  2  0  0  0
 33 60  1  0  0  0
 34 61  1  0  0  0
M  END
> <chembl_id>
CHEMBL69715

> <chembl_pref_name>
None

> <s_m_source_file>
sdf/inactives_sanitized.sdf

> <i_m_source_file_index>
280

> <i_lp_mmshare_version>
49012

> <i_m_ct_stereo_status>
1

> <i_f3d_flags>
0

> <s_epik_input>
W2NIXTFbY0hdW2NIXVtjSF1bY0hdYzFbQ0gyXVtDQEhdKEMoPU8pQyg9TylbTkgyXSlbTkhdQyg9TylbQ0hdKFtDSDJdW0NIMl0yKVtDSDJdW0NIMl1OMkMoPU8pYyhbY0hdMylbY0hdW2NIXWMoYzM0KVtjSF1bY0hdW2NIXVtjSF00

> <s_epik_cmdline>
J2VwaWtfcHl0aG9uJywgJy1waHQnLCAnMC41JywgJy1waCcsICc3LjUnLCAnLW50JywgJy1tYScsICcyMDAnLCAnLWltYWUnLCAnPGluZmlsZS5tYWU+JywgJy1vbWFlJywgJzxvdXRmaWxlLm1hZT4n

> <r_lp_tautomer_probability>
1

> <r_epik_Ionization_Penalty>
  0.0000

> <r_epik_Ionization_Penalty_Charging>
  0.0000

> <r_epik_Ionization_Penalty_Neutral>
  0.0000

> <r_epik_State_Penalty>
 -0.0000

> <r_epik_Charging_Adjusted_Penalty>
0

> <i_epik_Tot_Q>
0

> <i_epik_Tot_abs_Q>
0

> <s_lp_Force_Field>
OPLS3e

> <r_lp_Energy>
58.969429

> <b_lp_Chiralities_Consistent>
1

> <s_lp_Variant>
sdf/inactives_sanitized.sdf:280-1

$$$$
sdf/inactives_sanitized.sdf:281
                    3D
 Schrodinger Suite 2020-1.
 59 62  0  0  1  0            999 V2000
   -2.3630   -1.2487    0.0861 C   0  0  1  0  0  0
   -3.3464   -3.1069    0.2453 N   0  0  0  0  0  0
   -2.8700   -2.3278   -0.9219 C   0  0  2  0  0  0
   -2.8965   -2.1851    1.1902 C   0  0  0  0  0  0
   -0.9106   -1.0682    0.1649 N   0  0  0  0  0  0
   -0.2274    0.0851    0.0196 C   0  0  0  0  0  0
    1.3405   -0.0264   -0.0113 C   0  0  0  0  0  0
    1.5986   -1.3227    2.1832 C   0  0  0  0  0  0
    1.8713   -1.1265    0.8322 N   0  0  0  0  0  0
   -1.8970   -3.0025   -1.6707 O   0  0  0  0  0  0
   -2.9457   -2.1500    2.4175 O   0  0  0  0  0  0
   -0.7944    1.1412   -0.2723 O   0  0  0  0  0  0
    0.8737   -0.6230    2.8944 O   0  0  0  0  0  0
    2.2345   -2.4416    2.5967 O   0  0  0  0  0  0
   -1.3130   -2.3875   -2.7638 C   0  0  0  0  0  0
    1.9840   -3.0166    3.8806 C   0  0  0  0  0  0
    0.6091   -3.6769    3.9515 C   0  0  0  0  0  0
    1.6786   -0.2779   -1.5162 C   0  0  0  0  0  0
    1.9511    1.3680    0.3632 C   0  0  0  0  0  0
   -0.3428   -3.1245   -3.4457 C   0  0  0  0  0  0
   -1.6203   -1.0875   -3.2000 C   0  0  0  0  0  0
   -0.2560   -3.3577    5.0006 C   0  0  0  0  0  0
    0.2162   -4.5962    2.9738 C   0  0  0  0  0  0
    3.4718    1.4394    0.1049 C   0  0  0  0  0  0
    3.1932   -0.2288   -1.8109 C   0  0  0  0  0  0
   -1.0413   -5.1901    3.0437 C   0  0  0  0  0  0
    0.3193   -2.5788   -4.5422 C   0  0  0  0  0  0
   -0.9587   -0.5409   -4.2962 C   0  0  0  0  0  0
   -1.5129   -3.9529    5.0709 C   0  0  0  0  0  0
    0.0091   -1.2881   -4.9620 C   0  0  0  0  0  0
    3.8110    1.1092   -1.3617 C   0  0  0  0  0  0
   -1.8996   -4.8666    4.0925 C   0  0  0  0  0  0
   -2.8558   -0.2765    0.0244 H   0  0  0  0  0  0
   -4.1443   -3.7201    0.3273 H   0  0  0  0  0  0
   -3.6771   -2.0227   -1.5922 H   0  0  0  0  0  0
   -0.3758   -1.9155    0.2901 H   0  0  0  0  0  0
    2.5803   -1.7135    0.4177 H   0  0  0  0  0  0
    2.7416   -3.7753    4.0779 H   0  0  0  0  0  0
    2.0885   -2.2581    4.6585 H   0  0  0  0  0  0
    1.3505   -1.2829   -1.7891 H   0  0  0  0  0  0
    1.1257    0.3822   -2.1894 H   0  0  0  0  0  0
    1.4427    2.2037   -0.1210 H   0  0  0  0  0  0
    1.8118    1.5418    1.4315 H   0  0  0  0  0  0
   -0.0961   -4.1238   -3.1178 H   0  0  0  0  0  0
   -2.3571   -0.4838   -2.6925 H   0  0  0  0  0  0
    0.0401   -2.6459    5.7576 H   0  0  0  0  0  0
    0.8807   -4.8468    2.1596 H   0  0  0  0  0  0
    3.8441    2.4333    0.3557 H   0  0  0  0  0  0
    3.9928    0.7451    0.7660 H   0  0  0  0  0  0
    3.6975   -1.0524   -1.3030 H   0  0  0  0  0  0
    3.3684   -0.3784   -2.8772 H   0  0  0  0  0  0
   -1.3508   -5.8966    2.2878 H   0  0  0  0  0  0
    1.0718   -3.1528   -5.0625 H   0  0  0  0  0  0
   -1.1915    0.4612   -4.6248 H   0  0  0  0  0  0
   -2.1861   -3.7043    5.8781 H   0  0  0  0  0  0
    0.5247   -0.8621   -5.8103 H   0  0  0  0  0  0
    3.4414    1.9094   -2.0049 H   0  0  0  0  0  0
    4.8927    1.0850   -1.4982 H   0  0  0  0  0  0
   -2.8761   -5.3248    4.1455 H   0  0  0  0  0  0
  1  3  1  0  0  0
  1  4  1  0  0  0
  1  5  1  0  0  0
  1 33  1  0  0  0
  2  4  1  0  0  0
  2  3  1  0  0  0
  2 34  1  0  0  0
  3 10  1  0  0  0
  3 35  1  0  0  0
  4 11  2  0  0  0
  5  6  1  0  0  0
  5 36  1  0  0  0
  6  7  1  0  0  0
  6 12  2  0  0  0
  7  9  1  0  0  0
  7 18  1  0  0  0
  7 19  1  0  0  0
  8  9  1  0  0  0
  8 13  2  0  0  0
  8 14  1  0  0  0
  9 37  1  0  0  0
 10 15  1  0  0  0
 14 16  1  0  0  0
 15 20  2  0  0  0
 15 21  1  0  0  0
 16 17  1  0  0  0
 16 38  1  0  0  0
 16 39  1  0  0  0
 17 22  2  0  0  0
 17 23  1  0  0  0
 18 25  1  0  0  0
 18 40  1  0  0  0
 18 41  1  0  0  0
 19 24  1  0  0  0
 19 42  1  0  0  0
 19 43  1  0  0  0
 20 27  1  0  0  0
 20 44  1  0  0  0
 21 28  2  0  0  0
 21 45  1  0  0  0
 22 29  1  0  0  0
 22 46  1  0  0  0
 23 26  2  0  0  0
 23 47  1  0  0  0
 24 31  1  0  0  0
 24 48  1  0  0  0
 24 49  1  0  0  0
 25 31  1  0  0  0
 25 50  1  0  0  0
 25 51  1  0  0  0
 26 32  1  0  0  0
 26 52  1  0  0  0
 27 30  2  0  0  0
 27 53  1  0  0  0
 28 30  1  0  0  0
 28 54  1  0  0  0
 29 32  2  0  0  0
 29 55  1  0  0  0
 30 56  1  0  0  0
 31 57  1  0  0  0
 31 58  1  0  0  0
 32 59  1  0  0  0
M  END
> <chembl_id>
CHEMBL64245

> <chembl_pref_name>
None

> <i_m_ct_stereo_status>
1

> <s_m_source_file>
sdf/inactives_sanitized.sdf

> <i_m_source_file_index>
281

> <i_lp_mmshare_version>
49012

> <i_f3d_flags>
0

> <s_epik_input>
W2NIXTFbY0hdW2NIXVtjSF1bY0hdYzFPW0NAQEhdKFtOSF1DMj1PKVtDQEBIXTJbTkhdQyg9TylDMyhbQ0gyXVtDSDJdW0NIMl1bQ0gyXVtDSDJdMylbTkhdQyg9TylPW0NIMl1jNFtjSF1bY0hdW2NIXVtjSF1bY0hdNA==

> <s_epik_cmdline>
J2VwaWtfcHl0aG9uJywgJy1waHQnLCAnMC41JywgJy1waCcsICc3LjUnLCAnLW50JywgJy1tYScsICcyMDAnLCAnLWltYWUnLCAnPGluZmlsZS5tYWU+JywgJy1vbWFlJywgJzxvdXRmaWxlLm1hZT4n

> <r_lp_tautomer_probability>
1

> <r_epik_Ionization_Penalty>
  0.0000

> <r_epik_Ionization_Penalty_Charging>
  0.0000

> <r_epik_Ionization_Penalty_Neutral>
  0.0000

> <r_epik_State_Penalty>
 -0.0000

> <r_epik_Charging_Adjusted_Penalty>
0

> <i_epik_Tot_Q>
0

> <i_epik_Tot_abs_Q>
0

> <s_epik_Chemistry_Notes>
This compound has an ester and may undergo hydrolysis at high or low pH. This compound contains an acetal/aminal-like group ( X-CH(R)-Y where X, Y are N, S, or O) that may be acid/base labile, releasing an aldehyde.

> <s_lp_Force_Field>
OPLS3e

> <r_lp_Energy>
43.394655

> <b_lp_Chiralities_Consistent>
1

> <s_lp_Variant>
sdf/inactives_sanitized.sdf:281-1

$$$$
sdf/inactives_sanitized.sdf:282
                    3D
 Schrodinger Suite 2020-1.
 53 57  0  0  1  0            999 V2000
   -4.6657   -2.3995   -0.3981 N   0  0  0  0  0  0
   -5.9431   -2.7384   -0.1130 C   0  0  0  0  0  0
   -6.8751   -1.8417    0.3870 C   0  0  0  0  0  0
   -6.4838   -0.5255    0.6014 C   0  0  0  0  0  0
   -5.1504   -0.1165    0.3067 C   0  0  0  0  0  0
   -4.6893    1.2173    0.4989 C   0  0  0  0  0  0
   -3.3598    1.5256    0.2252 C   0  0  0  0  0  0
   -2.4472    0.5816   -0.2483 C   0  0  0  0  0  0
   -2.8840   -0.7454   -0.4804 C   0  0  0  0  0  0
   -4.2448   -1.1085   -0.1937 C   0  0  0  0  0  0
   -1.0299    1.0611   -0.5022 C   0  0  0  0  0  0
   -0.8228    2.1623   -1.0172 O   0  0  0  0  0  0
   -0.0427    0.2453   -0.0888 N   0  0  0  0  0  0
   -5.5766    2.2910    0.9815 N   0  3  0  0  0  0
   -5.2251    2.9176    1.9761 O   0  0  0  0  0  0
   -6.6025    2.5216    0.3494 O   0  5  0  0  0  0
   -2.0894   -1.6295   -0.9592 O   0  5  0  0  0  0
    1.3858    0.5120   -0.2433 C   0  0  0  0  0  0
    1.9268    0.3557   -1.6864 C   0  0  0  0  0  0
    1.6332   -1.0171   -2.3140 C   0  0  0  0  0  0
    2.1224   -1.0827   -3.7757 C   0  0  0  0  0  0
    3.5489   -0.7360   -3.9447 N   0  0  0  0  0  0
    3.9629    0.4731   -3.2029 C   0  0  0  0  0  0
    3.4520    0.5152   -1.7475 C   0  0  0  0  0  0
    4.2741   -1.1963   -5.0131 C   0  0  0  0  0  0
    5.4626   -0.7796   -5.4114 N   0  0  0  0  0  0
    3.7353   -2.2144   -5.7560 O   0  0  0  0  0  0
    4.6720   -2.4497   -6.7130 C   0  0  0  0  0  0
    5.7373   -1.5617   -6.4981 C   0  0  0  0  0  0
    6.8468   -1.5967   -7.3571 C   0  0  0  0  0  0
    6.8382   -2.5289   -8.4018 C   0  0  0  0  0  0
    5.7630   -3.4041   -8.5939 C   0  0  0  0  0  0
    4.6483   -3.3864   -7.7510 C   0  0  0  0  0  0
   -6.2148   -3.7681   -0.2918 H   0  0  0  0  0  0
   -7.8840   -2.1593    0.6059 H   0  0  0  0  0  0
   -7.1995    0.1785    0.9975 H   0  0  0  0  0  0
   -3.0342    2.5444    0.3897 H   0  0  0  0  0  0
   -0.2949   -0.6450    0.3158 H   0  0  0  0  0  0
    1.6822    1.4662    0.1961 H   0  0  0  0  0  0
    1.8785   -0.2331    0.3828 H   0  0  0  0  0  0
    1.4821    1.1309   -2.3140 H   0  0  0  0  0  0
    2.0494   -1.8353   -1.7237 H   0  0  0  0  0  0
    0.5596   -1.2075   -2.2923 H   0  0  0  0  0  0
    1.9557   -2.1021   -4.1255 H   0  0  0  0  0  0
    1.5248   -0.4334   -4.4170 H   0  0  0  0  0  0
    5.0527    0.5137   -3.1689 H   0  0  0  0  0  0
    3.6371    1.3543   -3.7574 H   0  0  0  0  0  0
    3.7296    1.4709   -1.3010 H   0  0  0  0  0  0
    3.9693   -0.2190   -1.1271 H   0  0  0  0  0  0
    7.6834   -0.9276   -7.2190 H   0  0  0  0  0  0
    7.6813   -2.5746   -9.0758 H   0  0  0  0  0  0
    5.7963   -4.1089   -9.4119 H   0  0  0  0  0  0
    3.8153   -4.0589   -7.8933 H   0  0  0  0  0  0
  1  2  2  0  0  0
  1 10  1  0  0  0
  2  3  1  0  0  0
  2 34  1  0  0  0
  3  4  2  0  0  0
  3 35  1  0  0  0
  4  5  1  0  0  0
  4 36  1  0  0  0
  5  6  2  0  0  0
  5 10  1  0  0  0
  6  7  1  0  0  0
  6 14  1  0  0  0
  7  8  2  0  0  0
  7 37  1  0  0  0
  8  9  1  0  0  0
  8 11  1  0  0  0
  9 10  2  0  0  0
  9 17  1  0  0  0
 11 12  2  0  0  0
 11 13  1  0  0  0
 13 18  1  0  0  0
 13 38  1  0  0  0
 14 15  2  0  0  0
 14 16  1  0  0  0
 18 19  1  0  0  0
 18 39  1  0  0  0
 18 40  1  0  0  0
 19 20  1  0  0  0
 19 24  1  0  0  0
 19 41  1  0  0  0
 20 21  1  0  0  0
 20 42  1  0  0  0
 20 43  1  0  0  0
 21 22  1  0  0  0
 21 44  1  0  0  0
 21 45  1  0  0  0
 22 23  1  0  0  0
 22 25  1  0  0  0
 23 24  1  0  0  0
 23 46  1  0  0  0
 23 47  1  0  0  0
 24 48  1  0  0  0
 24 49  1  0  0  0
 25 26  2  0  0  0
 25 27  1  0  0  0
 26 29  1  0  0  0
 27 28  1  0  0  0
 28 29  2  0  0  0
 28 33  1  0  0  0
 29 30  1  0  0  0
 30 31  2  0  0  0
 30 50  1  0  0  0
 31 32  1  0  0  0
 31 51  1  0  0  0
 32 33  2  0  0  0
 32 52  1  0  0  0
 33 53  1  0  0  0
M  CHG  3  14   1  16  -1  17  -1
M  END
> <chembl_id>
CHEMBL4228921

> <chembl_pref_name>
None

> <s_m_source_file>
sdf/inactives_sanitized.sdf

> <i_m_source_file_index>
282

> <i_lp_mmshare_version>
49012

> <i_m_ct_stereo_status>
1

> <i_f3d_flags>
0

> <s_epik_input>
W2NIXTFbY0hdW2NIXW5jKGMxMiljKFtPSF0pYyhbY0hdYzJbTitdKD1PKVtPLV0pQyg9TylbTkhdW0NIMl1bQ0hdM1tDSDJdW0NIMl1OKFtDSDJdW0NIMl0zKWMobzQpbmMoYzQ1KVtjSF1bY0hdW2NIXVtjSF01

> <s_epik_cmdline>
J2VwaWtfcHl0aG9uJywgJy1waHQnLCAnMC41JywgJy1waCcsICc3LjUnLCAnLW50JywgJy1tYScsICcyMDAnLCAnLWltYWUnLCAnPGluZmlsZS5tYWU+JywgJy1vbWFlJywgJzxvdXRmaWxlLm1hZT4n

> <r_lp_tautomer_probability>
1

> <r_epik_Ionization_Penalty>
  0.0011

> <r_epik_Ionization_Penalty_Charging>
  0.0000

> <r_epik_Ionization_Penalty_Neutral>
  0.0010

> <r_epik_State_Penalty>
 -0.0000

> <r_epik_Charging_Adjusted_Penalty>
3.05500451860748e-05

> <i_epik_Tot_Q>
-1

> <i_epik_Tot_abs_Q>
3

> <s_lp_Force_Field>
OPLS3e

> <r_lp_Energy>
46.450163

> <b_lp_Chiralities_Consistent>
1

> <s_lp_Variant>
sdf/inactives_sanitized.sdf:282-1

$$$$
sdf/inactives_sanitized.sdf:283
                    3D
 Schrodinger Suite 2020-1.
 40 42  0  0  1  0            999 V2000
   -0.7028   -1.0611   -0.1970 N   0  0  0  0  0  0
   -0.1090    0.1578   -0.2013 C   0  0  0  0  0  0
   -0.8204    1.3421   -0.0334 C   0  0  0  0  0  0
   -2.2040    1.2837    0.0901 C   0  0  0  0  0  0
   -2.8745    0.0279    0.0595 C   0  0  0  0  0  0
   -4.2944   -0.1059    0.1765 C   0  0  0  0  0  0
   -4.8608   -1.3806    0.1814 C   0  0  0  0  0  0
   -4.0794   -2.5199    0.0548 C   0  0  0  0  0  0
   -2.6966   -2.4315   -0.0796 C   0  0  0  0  0  0
   -2.0644   -1.1483   -0.0769 C   0  0  0  0  0  0
    1.3914    0.1809   -0.2809 C   0  0  0  0  0  0
    2.0284    0.5249    0.7173 O   0  0  0  0  0  0
    1.9756   -0.1683   -1.4596 N   0  0  0  0  0  0
   -5.1861    1.0628    0.2907 N   0  3  0  0  0  0
   -5.9822    1.0849    1.2241 O   0  0  0  0  0  0
   -5.1104    1.9355   -0.5683 O   0  5  0  0  0  0
   -2.0375   -3.5151   -0.1998 O   0  5  0  0  0  0
    1.2159   -0.4173   -2.6942 C   0  0  0  0  0  0
    0.8359    0.8279   -3.3843 C   0  0  0  0  0  0
    0.5376    1.8059   -3.9258 N   0  0  0  0  0  0
    3.4259   -0.0145   -1.6648 C   0  0  0  0  0  0
    3.8308    1.2743   -2.3697 C   0  0  0  0  0  0
    4.4042    1.2164   -3.6425 C   0  0  0  0  0  0
    4.7761    2.3910   -4.2913 C   0  0  0  0  0  0
    4.5801    3.6187   -3.6622 C   0  0  0  0  0  0
    4.0199    3.6826   -2.3881 C   0  0  0  0  0  0
    3.6478    2.5084   -1.7392 C   0  0  0  0  0  0
   -0.3163    2.2979   -0.0033 H   0  0  0  0  0  0
   -2.7596    2.1998    0.2188 H   0  0  0  0  0  0
   -5.9315   -1.4916    0.2749 H   0  0  0  0  0  0
   -4.5660   -3.4855    0.0583 H   0  0  0  0  0  0
    0.2977   -0.9712   -2.5063 H   0  0  0  0  0  0
    1.8018   -1.0269   -3.3827 H   0  0  0  0  0  0
    3.7817   -0.8702   -2.2400 H   0  0  0  0  0  0
    3.9654   -0.0649   -0.7175 H   0  0  0  0  0  0
    4.5554    0.2659   -4.1331 H   0  0  0  0  0  0
    5.2140    2.3507   -5.2777 H   0  0  0  0  0  0
    4.8672    4.5297   -4.1663 H   0  0  0  0  0  0
    3.8757    4.6379   -1.9054 H   0  0  0  0  0  0
    3.2153    2.5606   -0.7509 H   0  0  0  0  0  0
  1  2  2  0  0  0
  1 10  1  0  0  0
  2  3  1  0  0  0
  2 11  1  0  0  0
  3  4  2  0  0  0
  3 28  1  0  0  0
  4  5  1  0  0  0
  4 29  1  0  0  0
  5  6  2  0  0  0
  5 10  1  0  0  0
  6  7  1  0  0  0
  6 14  1  0  0  0
  7  8  2  0  0  0
  7 30  1  0  0  0
  8  9  1  0  0  0
  8 31  1  0  0  0
  9 10  2  0  0  0
  9 17  1  0  0  0
 11 12  2  0  0  0
 11 13  1  0  0  0
 13 18  1  0  0  0
 13 21  1  0  0  0
 14 15  2  0  0  0
 14 16  1  0  0  0
 18 19  1  0  0  0
 18 32  1  0  0  0
 18 33  1  0  0  0
 19 20  3  0  0  0
 21 22  1  0  0  0
 21 34  1  0  0  0
 21 35  1  0  0  0
 22 23  2  0  0  0
 22 27  1  0  0  0
 23 24  1  0  0  0
 23 36  1  0  0  0
 24 25  2  0  0  0
 24 37  1  0  0  0
 25 26  1  0  0  0
 25 38  1  0  0  0
 26 27  2  0  0  0
 26 39  1  0  0  0
 27 40  1  0  0  0
M  CHG  3  14   1  16  -1  17  -1
M  END
> <chembl_id>
CHEMBL4224831

> <chembl_pref_name>
None

> <s_m_source_file>
sdf/inactives_sanitized.sdf

> <i_m_source_file_index>
283

> <i_lp_mmshare_version>
49012

> <i_m_ct_stereo_status>
1

> <i_f3d_flags>
0

> <s_epik_input>
Tz1bTitdKFtPLV0pYzFbY0hdW2NIXWMoW09IXSljKGMxMiluYyhbY0hdW2NIXTIpQyg9TylOKFtDSDJdQyNOKVtDSDJdYzNbY0hdW2NIXVtjSF1bY0hdW2NIXTM=

> <s_epik_cmdline>
J2VwaWtfcHl0aG9uJywgJy1waHQnLCAnMC41JywgJy1waCcsICc3LjUnLCAnLW50JywgJy1tYScsICcyMDAnLCAnLWltYWUnLCAnPGluZmlsZS5tYWU+JywgJy1vbWFlJywgJzxvdXRmaWxlLm1hZT4n

> <r_lp_tautomer_probability>
1

> <r_epik_Ionization_Penalty>
  0.0001

> <r_epik_Ionization_Penalty_Charging>
  0.0001

> <r_epik_Ionization_Penalty_Neutral>
  0.0000

> <r_epik_State_Penalty>
 -0.0000

> <r_epik_Charging_Adjusted_Penalty>
0.000132039358011917

> <i_epik_Tot_Q>
-1

> <i_epik_Tot_abs_Q>
3

> <s_lp_Force_Field>
OPLS3e

> <r_lp_Energy>
46.829423

> <b_lp_Chiralities_Consistent>
1

> <s_lp_Variant>
sdf/inactives_sanitized.sdf:283-1

$$$$
sdf/inactives_sanitized.sdf:284
                    3D
 Schrodinger Suite 2020-1.
 56 60  0  0  1  0            999 V2000
   -2.8699   -2.6487    1.7312 N   0  0  0  0  0  0
   -3.1713   -3.6660    2.5705 C   0  0  0  0  0  0
   -4.3859   -4.3367    2.5503 C   0  0  0  0  0  0
   -5.3459   -3.9526    1.6204 C   0  0  0  0  0  0
   -5.0735   -2.8930    0.7067 C   0  0  0  0  0  0
   -6.0128   -2.4390   -0.2719 C   0  0  0  0  0  0
   -5.6705   -1.3677   -1.0965 C   0  0  0  0  0  0
   -4.4336   -0.7476   -1.0004 C   0  0  0  0  0  0
   -3.4808   -1.1632   -0.0703 C   0  0  0  0  0  0
   -3.7930   -2.2514    0.8042 C   0  0  0  0  0  0
   -7.3369   -3.0661   -0.4408 N   0  3  0  0  0  0
   -8.3215   -2.3342   -0.4213 O   0  0  0  0  0  0
   -7.3852   -4.2785   -0.6220 O   0  5  0  0  0  0
   -2.1729   -0.4327   -0.0517 C   0  0  0  0  0  0
   -0.8956   -1.0087   -0.0559 C   0  0  0  0  0  0
    0.0445    0.0093   -0.0553 C   0  0  0  0  0  0
   -0.6122    1.1968   -0.0519 O   0  0  0  0  0  0
   -1.9494    0.9483   -0.0420 C   0  0  0  0  0  0
   -2.8385    2.1446    0.0017 C   0  0  0  0  0  0
   -4.0336    2.1072    0.7225 C   0  0  0  0  0  0
   -4.8633    3.2240    0.7648 C   0  0  0  0  0  0
   -4.5075    4.3988    0.0865 C   0  0  0  0  0  0
   -3.3033    4.4312   -0.6298 C   0  0  0  0  0  0
   -2.4742    3.3137   -0.6694 C   0  0  0  0  0  0
   -5.3822    5.6163    0.1105 C   0  0  0  0  0  0
   -6.6863    5.5549    0.9090 C   0  0  0  0  0  0
   -5.1086    6.6641   -0.4760 O   0  0  0  0  0  0
    1.5368    0.0387   -0.0548 C   0  0  0  0  0  0
    2.2317    1.2512   -0.0557 C   0  0  0  0  0  0
    3.6238    1.2639   -0.0499 C   0  0  0  0  0  0
    4.3452    0.0616   -0.0431 C   0  0  0  0  0  0
    3.6428   -1.1509   -0.0426 C   0  0  0  0  0  0
    2.2508   -1.1616   -0.0491 C   0  0  0  0  0  0
    5.8444    0.0434   -0.0325 C   0  0  0  0  0  0
    6.5850    1.3820   -0.0713 C   0  0  0  0  0  0
    6.5135   -0.9902   -0.0018 O   0  0  0  0  0  0
   -2.4064   -3.9399    3.2822 H   0  0  0  0  0  0
   -4.5829   -5.1394    3.2458 H   0  0  0  0  0  0
   -6.2984   -4.4600    1.6069 H   0  0  0  0  0  0
   -6.3735   -1.0137   -1.8370 H   0  0  0  0  0  0
   -4.2137    0.0712   -1.6708 H   0  0  0  0  0  0
   -0.6816   -2.0672   -0.0630 H   0  0  0  0  0  0
   -4.3236    1.2145    1.2573 H   0  0  0  0  0  0
   -5.7791    3.1534    1.3331 H   0  0  0  0  0  0
   -2.9956    5.3201   -1.1627 H   0  0  0  0  0  0
   -1.5508    3.3603   -1.2288 H   0  0  0  0  0  0
   -7.3293    4.7644    0.5219 H   0  0  0  0  0  0
   -7.2262    6.5008    0.8571 H   0  0  0  0  0  0
   -6.4771    5.3316    1.9553 H   0  0  0  0  0  0
    1.6997    2.1915   -0.0590 H   0  0  0  0  0  0
    4.1216    2.2225   -0.0487 H   0  0  0  0  0  0
    4.1655   -2.0972   -0.0367 H   0  0  0  0  0  0
    1.7335   -2.1100   -0.0481 H   0  0  0  0  0  0
    6.3223    1.9851    0.7979 H   0  0  0  0  0  0
    6.3037    1.9423   -0.9630 H   0  0  0  0  0  0
    7.6655    1.2352   -0.0810 H   0  0  0  0  0  0
  1  2  2  0  0  0
  1 10  1  0  0  0
  2  3  1  0  0  0
  2 37  1  0  0  0
  3  4  2  0  0  0
  3 38  1  0  0  0
  4  5  1  0  0  0
  4 39  1  0  0  0
  5  6  2  0  0  0
  5 10  1  0  0  0
  6  7  1  0  0  0
  6 11  1  0  0  0
  7  8  2  0  0  0
  7 40  1  0  0  0
  8  9  1  0  0  0
  8 41  1  0  0  0
  9 10  2  0  0  0
  9 14  1  0  0  0
 11 12  2  0  0  0
 11 13  1  0  0  0
 14 15  1  0  0  0
 14 18  2  0  0  0
 15 16  2  0  0  0
 15 42  1  0  0  0
 16 17  1  0  0  0
 16 28  1  0  0  0
 17 18  1  0  0  0
 18 19  1  0  0  0
 19 20  2  0  0  0
 19 24  1  0  0  0
 20 21  1  0  0  0
 20 43  1  0  0  0
 21 22  2  0  0  0
 21 44  1  0  0  0
 22 23  1  0  0  0
 22 25  1  0  0  0
 23 24  2  0  0  0
 23 45  1  0  0  0
 24 46  1  0  0  0
 25 26  1  0  0  0
 25 27  2  0  0  0
 26 47  1  0  0  0
 26 48  1  0  0  0
 26 49  1  0  0  0
 28 29  2  0  0  0
 28 33  1  0  0  0
 29 30  1  0  0  0
 29 50  1  0  0  0
 30 31  2  0  0  0
 30 51  1  0  0  0
 31 32  1  0  0  0
 31 34  1  0  0  0
 32 33  2  0  0  0
 32 52  1  0  0  0
 33 53  1  0  0  0
 34 35  1  0  0  0
 34 36  2  0  0  0
 35 54  1  0  0  0
 35 55  1  0  0  0
 35 56  1  0  0  0
M  CHG  2  11   1  13  -1
M  END
> <chembl_id>
CHEMBL4227891

> <chembl_pref_name>
None

> <s_m_source_file>
sdf/inactives_sanitized.sdf

> <i_m_source_file_index>
284

> <i_lp_mmshare_version>
49012

> <i_m_ct_stereo_status>
1

> <i_f3d_flags>
0

> <s_epik_input>
W2NIXTFbY0hdW2NIXW5jKGMxMiljKFtjSF1bY0hdYzJbTitdKD1PKVtPLV0pLWMzW2NIXWMoLWM0W2NIXVtjSF1jKFtjSF1bY0hdNClDKD1PKVtDSDNdKW9jMy1jNVtjSF1bY0hdYyhbY0hdW2NIXTUpQyg9TylbQ0gzXQ==

> <s_epik_cmdline>
J2VwaWtfcHl0aG9uJywgJy1waHQnLCAnMC41JywgJy1waCcsICc3LjUnLCAnLW50JywgJy1tYScsICcyMDAnLCAnLWltYWUnLCAnPGluZmlsZS5tYWU+JywgJy1vbWFlJywgJzxvdXRmaWxlLm1hZT4n

> <r_lp_tautomer_probability>
1

> <r_epik_Ionization_Penalty>
  0.0000

> <r_epik_Ionization_Penalty_Charging>
  0.0000

> <r_epik_Ionization_Penalty_Neutral>
  0.0000

> <r_epik_State_Penalty>
 -0.0000

> <r_epik_Charging_Adjusted_Penalty>
0

> <i_epik_Tot_Q>
0

> <i_epik_Tot_abs_Q>
2

> <s_lp_Force_Field>
OPLS3e

> <r_lp_Energy>
48.472895

> <b_lp_Chiralities_Consistent>
1

> <s_lp_Variant>
sdf/inactives_sanitized.sdf:284-1

$$$$
sdf/inactives_sanitized.sdf:285
                    3D
 Schrodinger Suite 2020-1.
 27 28  0  0  1  0            999 V2000
   -3.0396    2.4131   -0.1848 N   0  0  0  0  0  0
   -4.3769    2.3173   -0.0100 C   0  0  0  0  0  0
   -5.0347    1.1124    0.1850 C   0  0  0  0  0  0
   -4.2879   -0.0596    0.1942 C   0  0  0  0  0  0
   -2.8760   -0.0119    0.0047 C   0  0  0  0  0  0
   -2.0558   -1.1758   -0.0006 C   0  0  0  0  0  0
   -0.6785   -1.0389   -0.1463 C   0  0  0  0  0  0
   -0.0529    0.1991   -0.3063 C   0  0  0  0  0  0
   -0.8466    1.3718   -0.3415 C   0  0  0  0  0  0
   -2.2711    1.2752   -0.1747 C   0  0  0  0  0  0
    1.4597    0.1920   -0.4502 C   0  0  0  0  0  0
    2.0287   -0.7108   -1.0671 O   0  0  0  0  0  0
    2.1304    1.1722    0.1818 N   0  0  0  0  0  0
   -2.6174   -2.5312    0.1434 N   0  3  0  0  0  0
   -2.1663   -3.2440    1.0343 O   0  0  0  0  0  0
   -3.4818   -2.8864   -0.6515 O   0  5  0  0  0  0
   -0.3186    2.5231   -0.5349 O   0  5  0  0  0  0
    3.5818    1.3306    0.1673 C   0  0  0  0  0  0
    4.1203    1.5928   -1.1795 C   0  0  0  0  0  0
    4.5440    1.7988   -2.2365 N   0  0  0  0  0  0
   -4.9282    3.2459   -0.0242 H   0  0  0  0  0  0
   -6.1051    1.0852    0.3272 H   0  0  0  0  0  0
   -4.7892   -1.0022    0.3528 H   0  0  0  0  0  0
   -0.0803   -1.9405   -0.1345 H   0  0  0  0  0  0
    1.5972    1.9295    0.5847 H   0  0  0  0  0  0
    4.0695    0.4466    0.5808 H   0  0  0  0  0  0
    3.8506    2.1722    0.8056 H   0  0  0  0  0  0
  1  2  2  0  0  0
  1 10  1  0  0  0
  2  3  1  0  0  0
  2 21  1  0  0  0
  3  4  2  0  0  0
  3 22  1  0  0  0
  4  5  1  0  0  0
  4 23  1  0  0  0
  5  6  2  0  0  0
  5 10  1  0  0  0
  6  7  1  0  0  0
  6 14  1  0  0  0
  7  8  2  0  0  0
  7 24  1  0  0  0
  8  9  1  0  0  0
  8 11  1  0  0  0
  9 10  2  0  0  0
  9 17  1  0  0  0
 11 12  2  0  0  0
 11 13  1  0  0  0
 13 18  1  0  0  0
 13 25  1  0  0  0
 14 15  2  0  0  0
 14 16  1  0  0  0
 18 19  1  0  0  0
 18 26  1  0  0  0
 18 27  1  0  0  0
 19 20  3  0  0  0
M  CHG  3  14   1  16  -1  17  -1
M  END
> <chembl_id>
CHEMBL4228126

> <chembl_pref_name>
None

> <s_m_source_file>
sdf/inactives_sanitized.sdf

> <i_m_source_file_index>
285

> <i_lp_mmshare_version>
49012

> <i_m_ct_stereo_status>
1

> <i_f3d_flags>
0

> <s_epik_input>
W2NIXTFbY0hdW2NIXW5jKGMxMiljKFtPSF0pYyhbY0hdYzJbTitdKD1PKVtPLV0pQyg9TylbTkhdW0NIMl1DI04=

> <s_epik_cmdline>
J2VwaWtfcHl0aG9uJywgJy1waHQnLCAnMC41JywgJy1waCcsICc3LjUnLCAnLW50JywgJy1tYScsICcyMDAnLCAnLWltYWUnLCAnPGluZmlsZS5tYWU+JywgJy1vbWFlJywgJzxvdXRmaWxlLm1hZT4n

> <r_lp_tautomer_probability>
1

> <r_epik_Ionization_Penalty>
  0.0000

> <r_epik_Ionization_Penalty_Charging>
  0.0000

> <r_epik_Ionization_Penalty_Neutral>
  0.0000

> <r_epik_State_Penalty>
 -0.0000

> <r_epik_Charging_Adjusted_Penalty>
1.10112700841633e-05

> <i_epik_Tot_Q>
-1

> <i_epik_Tot_abs_Q>
3

> <s_lp_Force_Field>
OPLS3e

> <r_lp_Energy>
27.91966

> <b_lp_Chiralities_Consistent>
1

> <s_lp_Variant>
sdf/inactives_sanitized.sdf:285-1

$$$$
sdf/inactives_sanitized.sdf:286
                    3D
 Schrodinger Suite 2020-1.
 37 39  0  0  1  0            999 V2000
   -1.8272    2.4706   -0.5615 C   0  0  0  0  0  0
   -2.2102    3.7371   -0.1073 C   0  0  0  0  0  0
   -3.5611    4.0779   -0.0315 C   0  0  0  0  0  0
   -4.5356    3.1554   -0.4128 C   0  0  0  0  0  0
   -4.1596    1.8920   -0.8699 C   0  0  0  0  0  0
   -2.8086    1.5508   -0.9462 C   0  0  0  0  0  0
   -0.3556    2.1040   -0.6514 C   0  0  0  0  0  0
    0.2223    1.3492    0.9064 S   0  0  0  0  0  0
    1.9962    1.1073    0.6272 C   0  0  0  0  0  0
    2.4857    1.4656   -0.5182 N   0  5  0  0  0  0
    3.8081    1.2989   -0.7561 C   0  0  0  0  0  0
    4.6134    0.7413    0.2923 N   0  0  0  0  0  0
    4.0203    0.4234    1.4021 C   0  0  0  0  0  0
    2.6418    0.5792    1.6240 N   0  0  0  0  0  0
    4.2995    1.6183   -1.8360 O   0  0  0  0  0  0
    5.0753   -0.2397    2.7083 S   0  0  0  0  0  0
    3.8661   -0.5651    4.0313 C   0  0  0  0  0  0
    4.5477   -1.1414    5.2613 C   0  0  0  0  0  0
    4.9460   -0.2956    6.3004 C   0  0  0  0  0  0
    5.5609   -0.8264    7.4315 C   0  0  0  0  0  0
    5.7737   -2.2006    7.5204 C   0  0  0  0  0  0
    5.3759   -3.0495    6.4896 C   0  0  0  0  0  0
    4.7595   -2.5195    5.3590 C   0  0  0  0  0  0
   -5.1043    0.9979   -1.2390 F   0  0  0  0  0  0
   -1.4617    4.4570    0.1907 H   0  0  0  0  0  0
   -3.8519    5.0558    0.3226 H   0  0  0  0  0  0
   -5.5812    3.4200   -0.3537 H   0  0  0  0  0  0
   -2.5254    0.5704   -1.3011 H   0  0  0  0  0  0
   -0.1993    1.4113   -1.4799 H   0  0  0  0  0  0
    0.2259    2.9998   -0.8754 H   0  0  0  0  0  0
    3.3437    0.3555    4.2965 H   0  0  0  0  0  0
    3.1085   -1.2654    3.6757 H   0  0  0  0  0  0
    4.7820    0.7701    6.2318 H   0  0  0  0  0  0
    5.8715   -0.1759    8.2358 H   0  0  0  0  0  0
    6.2512   -2.6119    8.3975 H   0  0  0  0  0  0
    5.5444   -4.1135    6.5667 H   0  0  0  0  0  0
    4.4515   -3.1776    4.5592 H   0  0  0  0  0  0
  1  6  1  0  0  0
  1  2  2  0  0  0
  1  7  1  0  0  0
  2  3  1  0  0  0
  2 25  1  0  0  0
  3  4  2  0  0  0
  3 26  1  0  0  0
  4  5  1  0  0  0
  4 27  1  0  0  0
  5  6  2  0  0  0
  5 24  1  0  0  0
  6 28  1  0  0  0
  7  8  1  0  0  0
  7 29  1  0  0  0
  7 30  1  0  0  0
  8  9  1  0  0  0
  9 14  2  0  0  0
  9 10  1  0  0  0
 10 11  1  0  0  0
 11 12  1  0  0  0
 11 15  2  0  0  0
 12 13  2  0  0  0
 13 14  1  0  0  0
 13 16  1  0  0  0
 16 17  1  0  0  0
 17 18  1  0  0  0
 17 31  1  0  0  0
 17 32  1  0  0  0
 18 19  2  0  0  0
 18 23  1  0  0  0
 19 20  1  0  0  0
 19 33  1  0  0  0
 20 21  2  0  0  0
 20 34  1  0  0  0
 21 22  1  0  0  0
 21 35  1  0  0  0
 22 23  2  0  0  0
 22 36  1  0  0  0
 23 37  1  0  0  0
M  CHG  1  10  -1
M  END
> <chembl_id>
CHEMBL1836464

> <chembl_pref_name>
None

> <s_m_source_file>
sdf/inactives_sanitized.sdf

> <i_m_source_file_index>
286

> <i_lp_mmshare_version>
49012

> <i_m_ct_stereo_status>
1

> <i_f3d_flags>
0

> <s_epik_input>
W2NIXTFjKEYpW2NIXVtjSF1bY0hdYzFbQ0gyXVNjMltuSF1jKD1PKW5jKG4yKVNbQ0gyXWMzW2NIXVtjSF1bY0hdW2NIXVtjSF0z

> <s_epik_cmdline>
J2VwaWtfcHl0aG9uJywgJy1waHQnLCAnMC41JywgJy1waCcsICc3LjUnLCAnLW50JywgJy1tYScsICcyMDAnLCAnLWltYWUnLCAnPGluZmlsZS5tYWU+JywgJy1vbWFlJywgJzxvdXRmaWxlLm1hZT4n

> <r_lp_tautomer_probability>
1

> <r_epik_Ionization_Penalty>
  0.3245

> <r_epik_Ionization_Penalty_Charging>
  0.0003

> <r_epik_Ionization_Penalty_Neutral>
  0.3241

> <r_epik_State_Penalty>
 -0.0000

> <r_epik_Charging_Adjusted_Penalty>
0.000330722952361958

> <i_epik_Tot_Q>
-1

> <i_epik_Tot_abs_Q>
1

> <s_lp_Force_Field>
OPLS3e

> <r_lp_Energy>
37.529607

> <b_lp_Chiralities_Consistent>
1

> <s_lp_Variant>
sdf/inactives_sanitized.sdf:286-1

$$$$
sdf/inactives_sanitized.sdf:287
                    3D
 Schrodinger Suite 2020-1.
 38 40  0  0  1  0            999 V2000
   -1.3784    1.9521    0.4939 C   0  0  0  0  0  0
   -1.6597    3.2129   -0.0378 C   0  0  0  0  0  0
   -2.9727    3.6755   -0.0756 C   0  0  0  0  0  0
   -4.0051    2.8749    0.4189 C   0  0  0  0  0  0
   -3.7268    1.6127    0.9484 C   0  0  0  0  0  0
   -2.4131    1.1523    0.9852 C   0  0  0  0  0  0
    0.0548    1.4493    0.5387 C   0  0  0  0  0  0
    0.4891    0.5728   -1.0002 S   0  0  0  0  0  0
    2.1668   -0.0008   -0.6495 C   0  0  0  0  0  0
    2.7019   -0.6651   -1.6213 N   0  5  0  0  0  0
    3.9613   -1.1447   -1.4822 C   0  0  0  0  0  0
    4.6350   -0.9125   -0.2361 N   0  0  0  0  0  0
    3.9966   -0.2469    0.6768 C   0  0  0  0  0  0
    2.7089    0.2842    0.4988 N   0  0  0  0  0  0
    4.5062   -1.7620   -2.3943 O   0  0  0  0  0  0
    4.8426   -0.0405    2.2579 S   0  0  0  0  0  0
    3.6141    0.9067    3.2131 C   0  0  0  0  0  0
    4.0981    1.1516    4.6327 C   0  0  0  0  0  0
    3.7832    0.2395    5.6439 C   0  0  0  0  0  0
    4.2172    0.4693    6.9469 C   0  0  0  0  0  0
    4.9622    1.6111    7.2347 C   0  0  0  0  0  0
    5.2767    2.5259    6.2318 C   0  0  0  0  0  0
    4.8422    2.2972    4.9287 C   0  0  0  0  0  0
   -5.3776    3.3581    0.3826 C   0  0  0  0  0  0
   -6.4689    3.7421    0.3539 N   0  0  0  0  0  0
   -0.8634    3.8333   -0.4230 H   0  0  0  0  0  0
   -3.1769    4.6532   -0.4901 H   0  0  0  0  0  0
   -4.5179    0.9835    1.3323 H   0  0  0  0  0  0
   -2.2013    0.1751    1.3950 H   0  0  0  0  0  0
    0.7348    2.2895    0.6872 H   0  0  0  0  0  0
    0.1799    0.7839    1.3947 H   0  0  0  0  0  0
    3.4192    1.8614    2.7219 H   0  0  0  0  0  0
    2.6651    0.3687    3.2411 H   0  0  0  0  0  0
    3.2060   -0.6462    5.4211 H   0  0  0  0  0  0
    3.9779   -0.2346    7.7304 H   0  0  0  0  0  0
    5.2991    1.7885    8.2455 H   0  0  0  0  0  0
    5.8539    3.4086    6.4641 H   0  0  0  0  0  0
    5.0859    3.0070    4.1514 H   0  0  0  0  0  0
  1  6  1  0  0  0
  1  2  2  0  0  0
  1  7  1  0  0  0
  2  3  1  0  0  0
  2 26  1  0  0  0
  3  4  2  0  0  0
  3 27  1  0  0  0
  4  5  1  0  0  0
  4 24  1  0  0  0
  5  6  2  0  0  0
  5 28  1  0  0  0
  6 29  1  0  0  0
  7  8  1  0  0  0
  7 30  1  0  0  0
  7 31  1  0  0  0
  8  9  1  0  0  0
  9 14  2  0  0  0
  9 10  1  0  0  0
 10 11  1  0  0  0
 11 15  2  0  0  0
 11 12  1  0  0  0
 12 13  2  0  0  0
 13 14  1  0  0  0
 13 16  1  0  0  0
 16 17  1  0  0  0
 17 18  1  0  0  0
 17 32  1  0  0  0
 17 33  1  0  0  0
 18 19  2  0  0  0
 18 23  1  0  0  0
 19 20  1  0  0  0
 19 34  1  0  0  0
 20 21  2  0  0  0
 20 35  1  0  0  0
 21 22  1  0  0  0
 21 36  1  0  0  0
 22 23  2  0  0  0
 22 37  1  0  0  0
 23 38  1  0  0  0
 24 25  3  0  0  0
M  CHG  1  10  -1
M  END
> <chembl_id>
CHEMBL1836509

> <chembl_pref_name>
None

> <s_m_source_file>
sdf/inactives_sanitized.sdf

> <i_m_source_file_index>
287

> <i_lp_mmshare_version>
49012

> <i_m_ct_stereo_status>
1

> <i_f3d_flags>
0

> <s_epik_input>
W2NIXTFbY0hdYyhDI04pW2NIXVtjSF1jMVtDSDJdU2MyW25IXWMoPU8pbmMobjIpU1tDSDJdYzNbY0hdW2NIXVtjSF1bY0hdW2NIXTM=

> <s_epik_cmdline>
J2VwaWtfcHl0aG9uJywgJy1waHQnLCAnMC41JywgJy1waCcsICc3LjUnLCAnLW50JywgJy1tYScsICcyMDAnLCAnLWltYWUnLCAnPGluZmlsZS5tYWU+JywgJy1vbWFlJywgJzxvdXRmaWxlLm1hZT4n

> <r_lp_tautomer_probability>
1

> <r_epik_Ionization_Penalty>
  0.3258

> <r_epik_Ionization_Penalty_Charging>
  0.0003

> <r_epik_Ionization_Penalty_Neutral>
  0.3254

> <r_epik_State_Penalty>
 -0.0000

> <r_epik_Charging_Adjusted_Penalty>
0.000330722952361958

> <i_epik_Tot_Q>
-1

> <i_epik_Tot_abs_Q>
1

> <s_lp_Force_Field>
OPLS3e

> <r_lp_Energy>
41.472977

> <b_lp_Chiralities_Consistent>
1

> <s_lp_Variant>
sdf/inactives_sanitized.sdf:287-1

$$$$
sdf/inactives_sanitized.sdf:288
                    3D
 Schrodinger Suite 2020-1.
 41 43  0  0  1  0            999 V2000
    0.2734    1.7275    0.0516 C   0  0  0  0  0  0
    0.6314    3.0539   -0.2022 C   0  0  0  0  0  0
   -0.1598    4.0961    0.2770 C   0  0  0  0  0  0
   -1.3139    3.8164    1.0074 C   0  0  0  0  0  0
   -1.6934    2.4976    1.2689 C   0  0  0  0  0  0
   -0.8874    1.4534    0.7821 C   0  0  0  0  0  0
    1.1300    0.5899   -0.4785 C   0  0  0  0  0  0
    2.4434    0.1559    0.7083 S   0  0  0  0  0  0
    3.2741   -1.2150   -0.1264 C   0  0  0  0  0  0
    4.2965   -1.6697    0.5225 N   0  5  0  0  0  0
    5.0149   -2.6905   -0.0029 C   0  0  0  0  0  0
    4.5800   -3.2420   -1.2532 N   0  0  0  0  0  0
    3.5238   -2.7253   -1.8057 C   0  0  0  0  0  0
    2.8260   -1.6294   -1.2771 N   0  0  0  0  0  0
    6.0043   -3.1324    0.5764 O   0  0  0  0  0  0
    2.8613   -3.4223   -3.3365 S   0  0  0  0  0  0
    3.9377   -4.8680   -3.6414 C   0  0  0  0  0  0
    3.5898   -6.0541   -2.7500 C   0  0  0  0  0  0
    4.4692   -6.4581   -1.7410 C   0  0  0  0  0  0
    4.1500   -7.5461   -0.9329 C   0  0  0  0  0  0
    2.9557   -8.2327   -1.1405 C   0  0  0  0  0  0
    2.0788   -7.8427   -2.1504 C   0  0  0  0  0  0
    2.3978   -6.7543   -2.9583 C   0  0  0  0  0  0
   -2.8528    2.3170    1.9985 O   0  0  0  0  0  0
   -3.2875    0.9937    2.2913 C   0  0  0  0  0  0
    1.5247    3.2786   -0.7669 H   0  0  0  0  0  0
    0.1211    5.1207    0.0831 H   0  0  0  0  0  0
   -1.9201    4.6317    1.3741 H   0  0  0  0  0  0
   -1.1487    0.4222    0.9658 H   0  0  0  0  0  0
    0.5012   -0.2799   -0.6760 H   0  0  0  0  0  0
    1.5736    0.8803   -1.4322 H   0  0  0  0  0  0
    3.7945   -5.1715   -4.6789 H   0  0  0  0  0  0
    4.9909   -4.5943   -3.5597 H   0  0  0  0  0  0
    5.3964   -5.9282   -1.5769 H   0  0  0  0  0  0
    4.8254   -7.8548   -0.1488 H   0  0  0  0  0  0
    2.7079   -9.0758   -0.5128 H   0  0  0  0  0  0
    1.1558   -8.3814   -2.3055 H   0  0  0  0  0  0
    1.7168   -6.4517   -3.7405 H   0  0  0  0  0  0
   -4.2124    1.0372    2.8661 H   0  0  0  0  0  0
   -2.5518    0.4545    2.8900 H   0  0  0  0  0  0
   -3.4916    0.4288    1.3805 H   0  0  0  0  0  0
  1  6  1  0  0  0
  1  2  2  0  0  0
  1  7  1  0  0  0
  2  3  1  0  0  0
  2 26  1  0  0  0
  3  4  2  0  0  0
  3 27  1  0  0  0
  4  5  1  0  0  0
  4 28  1  0  0  0
  5  6  2  0  0  0
  5 24  1  0  0  0
  6 29  1  0  0  0
  7  8  1  0  0  0
  7 30  1  0  0  0
  7 31  1  0  0  0
  8  9  1  0  0  0
  9 14  2  0  0  0
  9 10  1  0  0  0
 10 11  1  0  0  0
 11 15  2  0  0  0
 11 12  1  0  0  0
 12 13  2  0  0  0
 13 14  1  0  0  0
 13 16  1  0  0  0
 16 17  1  0  0  0
 17 18  1  0  0  0
 17 32  1  0  0  0
 17 33  1  0  0  0
 18 19  2  0  0  0
 18 23  1  0  0  0
 19 20  1  0  0  0
 19 34  1  0  0  0
 20 21  2  0  0  0
 20 35  1  0  0  0
 21 22  1  0  0  0
 21 36  1  0  0  0
 22 23  2  0  0  0
 22 37  1  0  0  0
 23 38  1  0  0  0
 24 25  1  0  0  0
 25 39  1  0  0  0
 25 40  1  0  0  0
 25 41  1  0  0  0
M  CHG  1  10  -1
M  END
> <chembl_id>
CHEMBL1836461

> <chembl_pref_name>
None

> <s_m_source_file>
sdf/inactives_sanitized.sdf

> <i_m_source_file_index>
288

> <i_lp_mmshare_version>
49012

> <i_m_ct_stereo_status>
1

> <i_f3d_flags>
0

> <s_epik_input>
W0NIM11PYyhbY0hdMSlbY0hdW2NIXVtjSF1jMVtDSDJdU2MyW25IXWMoPU8pbmMobjIpU1tDSDJdYzNbY0hdW2NIXVtjSF1bY0hdW2NIXTM=

> <s_epik_cmdline>
J2VwaWtfcHl0aG9uJywgJy1waHQnLCAnMC41JywgJy1waCcsICc3LjUnLCAnLW50JywgJy1tYScsICcyMDAnLCAnLWltYWUnLCAnPGluZmlsZS5tYWU+JywgJy1vbWFlJywgJzxvdXRmaWxlLm1hZT4n

> <r_lp_tautomer_probability>
1

> <r_epik_Ionization_Penalty>
  0.3245

> <r_epik_Ionization_Penalty_Charging>
  0.0003

> <r_epik_Ionization_Penalty_Neutral>
  0.3241

> <r_epik_State_Penalty>
 -0.0000

> <r_epik_Charging_Adjusted_Penalty>
0.000330722952361958

> <i_epik_Tot_Q>
-1

> <i_epik_Tot_abs_Q>
1

> <s_lp_Force_Field>
OPLS3e

> <r_lp_Energy>
45.026931

> <b_lp_Chiralities_Consistent>
1

> <s_lp_Variant>
sdf/inactives_sanitized.sdf:288-1

$$$$
sdf/inactives_sanitized.sdf:289
                    3D
 Schrodinger Suite 2020-1.
 38 40  0  0  1  0            999 V2000
   -1.0860    1.4729    0.2995 C   0  0  0  0  0  0
   -1.4354    2.8230    0.4071 C   0  0  0  0  0  0
   -2.7602    3.1927    0.6405 C   0  0  0  0  0  0
   -3.7490    2.2131    0.7682 C   0  0  0  0  0  0
   -3.4039    0.8626    0.6600 C   0  0  0  0  0  0
   -2.0784    0.4928    0.4265 C   0  0  0  0  0  0
    0.3617    1.0845    0.0432 C   0  0  0  0  0  0
    0.7035    1.0023   -1.7451 S   0  0  0  0  0  0
    2.4808    0.6783   -1.7802 C   0  0  0  0  0  0
    2.9982    0.7739   -2.9611 N   0  5  0  0  0  0
    4.3288    0.5783   -3.1201 C   0  0  0  0  0  0
    5.1053    0.2659   -1.9545 N   0  0  0  0  0  0
    4.4817    0.1840   -0.8191 C   0  0  0  0  0  0
    3.1021    0.4012   -0.6702 N   0  0  0  0  0  0
    4.8519    0.6665   -4.2285 O   0  0  0  0  0  0
    5.5055   -0.2219    0.6144 S   0  0  0  0  0  0
    4.2916   -0.3951    1.9669 C   0  0  0  0  0  0
    3.8200   -1.8353    2.1115 C   0  0  0  0  0  0
    2.6355   -2.2543    1.4993 C   0  0  0  0  0  0
    2.2044   -3.5703    1.6430 C   0  0  0  0  0  0
    2.9564   -4.4638    2.4028 C   0  0  0  0  0  0
    4.1354   -4.0527    3.0205 C   0  0  0  0  0  0
    4.5669   -2.7366    2.8760 C   0  0  0  0  0  0
   -5.1316    2.5973    1.0113 C   0  0  0  0  0  0
   -6.2309    2.9027    1.2047 N   0  0  0  0  0  0
   -1.7647   -0.8196    0.3234 F   0  0  0  0  0  0
   -0.6803    3.5895    0.3074 H   0  0  0  0  0  0
   -3.0080    4.2422    0.7196 H   0  0  0  0  0  0
   -4.1561    0.0917    0.7546 H   0  0  0  0  0  0
    1.0245    1.8142    0.5111 H   0  0  0  0  0  0
    0.5710    0.1186    0.5019 H   0  0  0  0  0  0
    4.7817   -0.0940    2.8935 H   0  0  0  0  0  0
    3.4485    0.2882    1.8646 H   0  0  0  0  0  0
    2.0502   -1.5676    0.9084 H   0  0  0  0  0  0
    1.2914   -3.8961    1.1669 H   0  0  0  0  0  0
    2.6224   -5.4850    2.5138 H   0  0  0  0  0  0
    4.7124   -4.7517    3.6080 H   0  0  0  0  0  0
    5.4823   -2.4199    3.3545 H   0  0  0  0  0  0
  1  2  2  0  0  0
  1  7  1  0  0  0
  1  6  1  0  0  0
  2  3  1  0  0  0
  2 27  1  0  0  0
  3  4  2  0  0  0
  3 28  1  0  0  0
  4  5  1  0  0  0
  4 24  1  0  0  0
  5  6  2  0  0  0
  5 29  1  0  0  0
  6 26  1  0  0  0
  7  8  1  0  0  0
  7 30  1  0  0  0
  7 31  1  0  0  0
  8  9  1  0  0  0
  9 14  2  0  0  0
  9 10  1  0  0  0
 10 11  1  0  0  0
 11 15  2  0  0  0
 11 12  1  0  0  0
 12 13  2  0  0  0
 13 14  1  0  0  0
 13 16  1  0  0  0
 16 17  1  0  0  0
 17 18  1  0  0  0
 17 32  1  0  0  0
 17 33  1  0  0  0
 18 19  2  0  0  0
 18 23  1  0  0  0
 19 20  1  0  0  0
 19 34  1  0  0  0
 20 21  2  0  0  0
 20 35  1  0  0  0
 21 22  1  0  0  0
 21 36  1  0  0  0
 22 23  2  0  0  0
 22 37  1  0  0  0
 23 38  1  0  0  0
 24 25  3  0  0  0
M  CHG  1  10  -1
M  END
> <chembl_id>
CHEMBL1836510

> <chembl_pref_name>
None

> <s_m_source_file>
sdf/inactives_sanitized.sdf

> <i_m_source_file_index>
289

> <i_lp_mmshare_version>
49012

> <i_m_ct_stereo_status>
1

> <i_f3d_flags>
0

> <s_epik_input>
RmMxW2NIXWMoQyNOKVtjSF1bY0hdYzFbQ0gyXVNjMltuSF1jKD1PKW5jKG4yKVNbQ0gyXWMzW2NIXVtjSF1bY0hdW2NIXVtjSF0z

> <s_epik_cmdline>
J2VwaWtfcHl0aG9uJywgJy1waHQnLCAnMC41JywgJy1waCcsICc3LjUnLCAnLW50JywgJy1tYScsICcyMDAnLCAnLWltYWUnLCAnPGluZmlsZS5tYWU+JywgJy1vbWFlJywgJzxvdXRmaWxlLm1hZT4n

> <r_lp_tautomer_probability>
1

> <r_epik_Ionization_Penalty>
  0.3245

> <r_epik_Ionization_Penalty_Charging>
  0.0003

> <r_epik_Ionization_Penalty_Neutral>
  0.3242

> <r_epik_State_Penalty>
 -0.0000

> <r_epik_Charging_Adjusted_Penalty>
0.000330722952361958

> <i_epik_Tot_Q>
-1

> <i_epik_Tot_abs_Q>
1

> <s_lp_Force_Field>
OPLS3e

> <r_lp_Energy>
44.402434

> <b_lp_Chiralities_Consistent>
1

> <s_lp_Variant>
sdf/inactives_sanitized.sdf:289-1

$$$$
sdf/inactives_sanitized.sdf:290
                    3D
 Schrodinger Suite 2020-1.
 30 31  0  0  1  0            999 V2000
   -1.5156    2.3449    0.2513 C   0  0  0  0  0  0
   -0.0271    1.9447    0.2622 C   0  0  0  0  0  0
    0.2425    0.4554   -0.7754 S   0  0  0  0  0  0
    2.0231    0.2055   -0.6090 C   0  0  0  0  0  0
    2.5058   -0.8177   -1.2363 N   0  0  0  0  0  0
    3.8609   -1.1597   -0.9994 C   0  0  0  0  0  0
    4.5300   -0.3908   -0.0783 N   0  0  0  0  0  0
    3.9729    0.7214    0.5219 C   0  0  0  0  0  0
    2.7663    1.0809    0.1964 N   0  0  0  0  0  0
    4.5144   -2.0717   -1.5005 O   0  0  0  0  0  0
    4.9452    1.7038    1.6830 S   0  0  0  0  0  0
    3.7934    3.0589    2.0828 C   0  0  0  0  0  0
    4.4245    4.0368    3.0598 C   0  0  0  0  0  0
    5.1570    5.1265    2.5808 C   0  0  0  0  0  0
    5.7289    6.0270    3.4759 C   0  0  0  0  0  0
    5.5629    5.8370    4.8462 C   0  0  0  0  0  0
    4.8294    4.7556    5.3301 C   0  0  0  0  0  0
    4.2577    3.8545    4.4356 C   0  0  0  0  0  0
   -2.3493    1.6902   -0.4158 O   0  5  0  0  0  0
   -1.8034    3.3463    0.9429 O   0  0  0  0  0  0
    0.2829    1.7437    1.2883 H   0  0  0  0  0  0
    0.5695    2.7751   -0.1170 H   0  0  0  0  0  0
    3.5077    3.5873    1.1716 H   0  0  0  0  0  0
    2.8748    2.6542    2.5112 H   0  0  0  0  0  0
    5.2859    5.2743    1.5182 H   0  0  0  0  0  0
    6.2978    6.8690    3.1097 H   0  0  0  0  0  0
    6.0065    6.5356    5.5404 H   0  0  0  0  0  0
    4.7043    4.6170    6.3939 H   0  0  0  0  0  0
    3.6891    3.0162    4.8117 H   0  0  0  0  0  0
    5.4867   -0.6413    0.1226 H   0  0  0  0  0  0
  1  2  1  0  0  0
  1 19  1  0  0  0
  1 20  2  0  0  0
  2  3  1  0  0  0
  2 21  1  0  0  0
  2 22  1  0  0  0
  3  4  1  0  0  0
  4  9  1  0  0  0
  4  5  2  0  0  0
  5  6  1  0  0  0
  6 10  2  0  0  0
  6  7  1  0  0  0
  7  8  1  0  0  0
  7 30  1  0  0  0
  8 11  1  0  0  0
  8  9  2  0  0  0
 11 12  1  0  0  0
 12 13  1  0  0  0
 12 23  1  0  0  0
 12 24  1  0  0  0
 13 14  2  0  0  0
 13 18  1  0  0  0
 14 15  1  0  0  0
 14 25  1  0  0  0
 15 16  2  0  0  0
 15 26  1  0  0  0
 16 17  1  0  0  0
 16 27  1  0  0  0
 17 18  2  0  0  0
 17 28  1  0  0  0
 18 29  1  0  0  0
M  CHG  1  19  -1
M  END
> <chembl_id>
CHEMBL1836515

> <chembl_pref_name>
None

> <s_m_source_file>
sdf/inactives_sanitized.sdf

> <i_m_source_file_index>
290

> <i_lp_mmshare_version>
49012

> <i_m_ct_stereo_status>
1

> <i_f3d_flags>
0

> <s_epik_input>
W09IXUMoPU8pW0NIMl1TYzFbbkhdYyg9TyluYyhuMSlTW0NIMl1jMltjSF1bY0hdW2NIXVtjSF1bY0hdMg==

> <s_epik_cmdline>
J2VwaWtfcHl0aG9uJywgJy1waHQnLCAnMC41JywgJy1waCcsICc3LjUnLCAnLW50JywgJy1tYScsICcyMDAnLCAnLWltYWUnLCAnPGluZmlsZS5tYWU+JywgJy1vbWFlJywgJzxvdXRmaWxlLm1hZT4n

> <r_lp_tautomer_probability>
1

> <r_epik_Ionization_Penalty>
  0.0163

> <r_epik_Ionization_Penalty_Charging>
  0.0008

> <r_epik_Ionization_Penalty_Neutral>
  0.0155

> <r_epik_State_Penalty>
 -0.0000

> <r_epik_Charging_Adjusted_Penalty>
0.000767716247879947

> <i_epik_Tot_Q>
-1

> <i_epik_Tot_abs_Q>
1

> <s_lp_Force_Field>
OPLS3e

> <r_lp_Energy>
36.34038

> <b_lp_Chiralities_Consistent>
1

> <s_lp_Variant>
sdf/inactives_sanitized.sdf:290-1

$$$$
sdf/inactives_sanitized.sdf:291
                    3D
 Schrodinger Suite 2020-1.
 46 48  0  0  1  0            999 V2000
    3.1401   -0.8001   -2.7172 O   0  0  0  0  0  0
    2.9792   -0.8357   -1.3817 C   0  0  0  0  0  0
    3.6410   -1.5367   -0.6117 O   0  0  0  0  0  0
    0.3694   -2.3470   -0.2725 O   0  0  0  0  0  0
   -0.4407   -3.3846   -0.5932 C   0  0  0  0  0  0
   -1.7116   -3.0724   -0.5253 N   0  0  0  0  0  0
   -1.7561   -1.7329   -0.1448 N   0  0  0  0  0  0
   -0.5085   -1.3432   -0.0146 C   0  0  0  0  0  0
    0.0135   -0.0234    0.3478 C   0  0  0  0  0  0
   -0.7659    0.8799    0.6596 O   0  0  0  0  0  0
    1.5266    0.1944    0.3680 C   0  0  1  0  0  0
    1.9468    0.0284   -1.0344 N   0  0  0  0  0  0
    1.9461    1.5675    0.9604 C   0  0  0  0  0  0
    3.4729    1.7655    1.0420 C   0  0  0  0  0  0
    3.8676    3.0906    1.7077 C   0  0  0  0  0  0
    0.1623   -4.6441   -0.9673 C   0  0  0  0  0  0
    1.4801   -5.0596   -1.1086 C   0  0  0  0  0  0
    1.4462   -6.3980   -1.5019 C   0  0  0  0  0  0
    0.1083   -6.7433   -1.5850 C   0  0  0  0  0  0
   -0.6703   -5.6791   -1.2615 O   0  0  0  0  0  0
    4.1105   -1.6205   -3.3556 C   0  0  0  0  0  0
    3.9546   -1.5087   -4.8604 C   0  0  0  0  0  0
    3.2610   -2.4969   -5.5631 C   0  0  0  0  0  0
    3.1175   -2.3932   -6.9443 C   0  0  0  0  0  0
    3.6671   -1.3025   -7.6153 C   0  0  0  0  0  0
    4.3588   -0.3137   -6.9182 C   0  0  0  0  0  0
    4.5036   -0.4170   -5.5371 C   0  0  0  0  0  0
    1.9499   -0.5839    1.0079 H   0  0  0  0  0  0
    1.5464    0.6323   -1.7374 H   0  0  0  0  0  0
    1.5282    1.6711    1.9637 H   0  0  0  0  0  0
    1.5234    2.3751    0.3590 H   0  0  0  0  0  0
    3.9208    0.9410    1.5985 H   0  0  0  0  0  0
    3.9062    1.7336    0.0416 H   0  0  0  0  0  0
    4.9520    3.1986    1.7461 H   0  0  0  0  0  0
    3.4938    3.1469    2.7306 H   0  0  0  0  0  0
    3.4698    3.9442    1.1579 H   0  0  0  0  0  0
    2.3629   -4.4582   -0.9458 H   0  0  0  0  0  0
    2.2940   -7.0366   -1.7019 H   0  0  0  0  0  0
   -0.4109   -7.6538   -1.8459 H   0  0  0  0  0  0
    5.1175   -1.3136   -3.0683 H   0  0  0  0  0  0
    3.9973   -2.6633   -3.0525 H   0  0  0  0  0  0
    2.8330   -3.3414   -5.0424 H   0  0  0  0  0  0
    2.5827   -3.1544   -7.4932 H   0  0  0  0  0  0
    3.5551   -1.2227   -8.6866 H   0  0  0  0  0  0
    4.7805    0.5288   -7.4465 H   0  0  0  0  0  0
    5.0383    0.3500   -4.9952 H   0  0  0  0  0  0
  1  2  1  0  0  0
  1 21  1  0  0  0
  2 12  1  0  0  0
  2  3  2  0  0  0
  4  5  1  0  0  0
  4  8  1  0  0  0
  5  6  2  0  0  0
  5 16  1  0  0  0
  6  7  1  0  0  0
  7  8  2  0  0  0
  8  9  1  0  0  0
  9 10  2  0  0  0
  9 11  1  0  0  0
 11 12  1  0  0  0
 11 13  1  0  0  0
 11 28  1  0  0  0
 12 29  1  0  0  0
 13 14  1  0  0  0
 13 30  1  0  0  0
 13 31  1  0  0  0
 14 15  1  0  0  0
 14 32  1  0  0  0
 14 33  1  0  0  0
 15 34  1  0  0  0
 15 35  1  0  0  0
 15 36  1  0  0  0
 16 17  2  0  0  0
 16 20  1  0  0  0
 17 18  1  0  0  0
 17 37  1  0  0  0
 18 19  2  0  0  0
 18 38  1  0  0  0
 19 20  1  0  0  0
 19 39  1  0  0  0
 21 22  1  0  0  0
 21 40  1  0  0  0
 21 41  1  0  0  0
 22 23  2  0  0  0
 22 27  1  0  0  0
 23 24  1  0  0  0
 23 42  1  0  0  0
 24 25  2  0  0  0
 24 43  1  0  0  0
 25 26  1  0  0  0
 25 44  1  0  0  0
 26 27  2  0  0  0
 26 45  1  0  0  0
 27 46  1  0  0  0
M  END
> <chembl_id>
CHEMBL210759

> <chembl_pref_name>
None

> <i_m_ct_stereo_status>
1

> <s_m_source_file>
sdf/inactives_sanitized.sdf

> <i_m_source_file_index>
291

> <i_lp_mmshare_version>
49012

> <i_f3d_flags>
0

> <s_epik_input>
W2NIXTFbY0hdW2NIXVtjSF1bY0hdYzFbQ0gyXU9DKD1PKVtOSF1bQ0BASF0oW0NIMl1bQ0gyXVtDSDNdKUMoPU8pYyhubjIpb2MyLWMzW2NIXVtjSF1bY0hdbzM=

> <s_epik_cmdline>
J2VwaWtfcHl0aG9uJywgJy1waHQnLCAnMC41JywgJy1waCcsICc3LjUnLCAnLW50JywgJy1tYScsICcyMDAnLCAnLWltYWUnLCAnPGluZmlsZS5tYWU+JywgJy1vbWFlJywgJzxvdXRmaWxlLm1hZT4n

> <r_lp_tautomer_probability>
1

> <r_epik_Ionization_Penalty>
  0.0000

> <r_epik_Ionization_Penalty_Charging>
  0.0000

> <r_epik_Ionization_Penalty_Neutral>
  0.0000

> <r_epik_State_Penalty>
 -0.0000

> <r_epik_Charging_Adjusted_Penalty>
0

> <i_epik_Tot_Q>
0

> <i_epik_Tot_abs_Q>
0

> <s_epik_Chemistry_Notes>
This compound has an ester and may undergo hydrolysis at high or low pH.

> <s_lp_Force_Field>
OPLS3e

> <r_lp_Energy>
30.465014

> <b_lp_Chiralities_Consistent>
1

> <s_lp_Variant>
sdf/inactives_sanitized.sdf:291-1

$$$$
sdf/inactives_sanitized.sdf:292
                    3D
 Schrodinger Suite 2020-1.
 71 73  0  0  1  0            999 V2000
    3.8303   -0.2272   -0.8189 C   0  0  0  0  0  0
    4.1720   -1.0014    0.4986 C   0  0  0  0  0  0
    4.0597   -2.5403    0.4003 C   0  0  0  0  0  0
    4.9321   -3.0903   -0.7452 C   0  0  0  0  0  0
    4.6641   -2.3734   -2.0836 C   0  0  0  0  0  0
    4.7467   -0.8350   -1.9341 C   0  0  0  0  0  0
    2.3176   -0.4560   -1.1795 C   0  0  0  0  0  0
    1.9514   -0.5567   -2.3527 O   0  0  0  0  0  0
   -2.6179    0.2070   -1.4464 O   0  0  0  0  0  0
   -3.7895    0.7425   -1.8764 C   0  0  0  0  0  0
   -3.7401    2.0520   -1.9495 N   0  0  0  0  0  0
   -2.4619    2.4159   -1.5370 N   0  0  0  0  0  0
   -1.8365    1.2994   -1.2444 C   0  0  0  0  0  0
   -0.4734    1.1143   -0.7529 C   0  0  0  0  0  0
    0.2892    2.0836   -0.6866 O   0  0  0  0  0  0
   -0.0448   -0.2965   -0.3210 C   0  0  1  0  0  0
    1.4208   -0.3404   -0.1782 N   0  0  0  0  0  0
   -0.7495   -0.6945    1.0028 C   0  0  0  0  0  0
   -0.4069   -2.1212    1.4792 C   0  0  0  0  0  0
   -1.1506   -2.5162    2.7620 C   0  0  0  0  0  0
    4.0764    1.2165   -0.6068 N   0  0  0  0  0  0
    3.8671    2.2558   -1.4484 C   0  0  0  0  0  0
    4.1941    3.6364   -0.9136 C   0  0  0  0  0  0
    3.4162    2.1149   -2.5869 O   0  0  0  0  0  0
    4.6734    3.8294    0.3918 C   0  0  0  0  0  0
    4.9515    5.1096    0.8615 C   0  0  0  0  0  0
    4.7591    6.2247    0.0477 C   0  0  0  0  0  0
    4.2831    6.0396   -1.2582 C   0  0  0  0  0  0
    4.0050    4.7598   -1.7302 C   0  0  0  0  0  0
    5.0608    7.4522    0.6094 O   0  0  0  0  0  0
    4.8603    8.6586   -0.1270 C   0  0  0  0  0  0
    5.2147    9.6691    0.6650 F   0  0  0  0  0  0
    5.6340    8.7084   -1.2130 F   0  0  0  0  0  0
    3.5773    8.8324   -0.4505 F   0  0  0  0  0  0
   -4.9460   -0.2033   -2.2023 C   0  0  0  0  0  0
   -6.2208    0.5851   -2.5892 C   0  0  0  0  0  0
   -5.2555   -1.0754   -0.9645 C   0  0  0  0  0  0
   -4.5421   -1.1123   -3.3840 C   0  0  0  0  0  0
    5.1636   -0.7019    0.8431 H   0  0  0  0  0  0
    3.5595   -0.6357    1.3249 H   0  0  0  0  0  0
    4.3616   -2.9946    1.3448 H   0  0  0  0  0  0
    3.0208   -2.8339    0.2450 H   0  0  0  0  0  0
    5.9843   -2.9721   -0.4820 H   0  0  0  0  0  0
    4.7666   -4.1625   -0.8574 H   0  0  0  0  0  0
    3.6831   -2.6630   -2.4620 H   0  0  0  0  0  0
    5.3824   -2.7098   -2.8322 H   0  0  0  0  0  0
    5.7757   -0.5154   -1.7608 H   0  0  0  0  0  0
    4.5426   -0.3548   -2.8925 H   0  0  0  0  0  0
   -0.3443   -1.0202   -1.0830 H   0  0  0  0  0  0
    1.7651   -0.1869    0.7582 H   0  0  0  0  0  0
   -1.8327   -0.6252    0.8888 H   0  0  0  0  0  0
   -0.4761    0.0105    1.7911 H   0  0  0  0  0  0
   -0.6507   -2.8375    0.6932 H   0  0  0  0  0  0
    0.6660   -2.2101    1.6556 H   0  0  0  0  0  0
   -0.8890   -3.5297    3.0673 H   0  0  0  0  0  0
   -2.2313   -2.4826    2.6196 H   0  0  0  0  0  0
   -0.9000   -1.8480    3.5867 H   0  0  0  0  0  0
    4.7057    1.4138    0.1569 H   0  0  0  0  0  0
    4.8331    2.9980    1.0631 H   0  0  0  0  0  0
    5.3173    5.2369    1.8700 H   0  0  0  0  0  0
    4.1194    6.8734   -1.9233 H   0  0  0  0  0  0
    3.6363    4.6553   -2.7411 H   0  0  0  0  0  0
   -7.0534   -0.0810   -2.8198 H   0  0  0  0  0  0
   -6.0529    1.2127   -3.4658 H   0  0  0  0  0  0
   -6.5438    1.2442   -1.7818 H   0  0  0  0  0  0
   -5.5371   -0.4631   -0.1065 H   0  0  0  0  0  0
   -4.3903   -1.6674   -0.6617 H   0  0  0  0  0  0
   -6.0748   -1.7702   -1.1551 H   0  0  0  0  0  0
   -5.3372   -1.8125   -3.6446 H   0  0  0  0  0  0
   -3.6522   -1.7003   -3.1540 H   0  0  0  0  0  0
   -4.3152   -0.5275   -4.2767 H   0  0  0  0  0  0
  1  7  1  0  0  0
  1 21  1  0  0  0
  1  2  1  0  0  0
  1  6  1  0  0  0
  2  3  1  0  0  0
  2 39  1  0  0  0
  2 40  1  0  0  0
  3  4  1  0  0  0
  3 41  1  0  0  0
  3 42  1  0  0  0
  4  5  1  0  0  0
  4 43  1  0  0  0
  4 44  1  0  0  0
  5  6  1  0  0  0
  5 45  1  0  0  0
  5 46  1  0  0  0
  6 47  1  0  0  0
  6 48  1  0  0  0
  7  8  2  0  0  0
  7 17  1  0  0  0
  9 10  1  0  0  0
  9 13  1  0  0  0
 10 11  2  0  0  0
 10 35  1  0  0  0
 11 12  1  0  0  0
 12 13  2  0  0  0
 13 14  1  0  0  0
 14 15  2  0  0  0
 14 16  1  0  0  0
 16 17  1  0  0  0
 16 18  1  0  0  0
 16 49  1  0  0  0
 17 50  1  0  0  0
 18 19  1  0  0  0
 18 51  1  0  0  0
 18 52  1  0  0  0
 19 20  1  0  0  0
 19 53  1  0  0  0
 19 54  1  0  0  0
 20 55  1  0  0  0
 20 56  1  0  0  0
 20 57  1  0  0  0
 21 22  1  0  0  0
 21 58  1  0  0  0
 22 23  1  0  0  0
 22 24  2  0  0  0
 23 25  2  0  0  0
 23 29  1  0  0  0
 25 26  1  0  0  0
 25 59  1  0  0  0
 26 27  2  0  0  0
 26 60  1  0  0  0
 27 28  1  0  0  0
 27 30  1  0  0  0
 28 29  2  0  0  0
 28 61  1  0  0  0
 29 62  1  0  0  0
 30 31  1  0  0  0
 31 32  1  0  0  0
 31 33  1  0  0  0
 31 34  1  0  0  0
 35 36  1  0  0  0
 35 37  1  0  0  0
 35 38  1  0  0  0
 36 63  1  0  0  0
 36 64  1  0  0  0
 36 65  1  0  0  0
 37 66  1  0  0  0
 37 67  1  0  0  0
 37 68  1  0  0  0
 38 69  1  0  0  0
 38 70  1  0  0  0
 38 71  1  0  0  0
M  END
> <chembl_id>
CHEMBL209181

> <chembl_pref_name>
None

> <i_m_ct_stereo_status>
1

> <s_m_source_file>
sdf/inactives_sanitized.sdf

> <i_m_source_file_index>
292

> <i_lp_mmshare_version>
49012

> <i_f3d_flags>
0

> <s_epik_input>
W0NIM11DKFtDSDNdKShbQ0gzXSljMW9jKG5uMSlDKD1PKVtDQEhdKFtDSDJdW0NIMl1bQ0gzXSlbTkhdQyg9TylDMihbQ0gyXVtDSDJdW0NIMl1bQ0gyXVtDSDJdMilbTkhdQyg9TyljM1tjSF1bY0hdYyhbY0hdW2NIXTMpT0MoRikoRilG

> <s_epik_cmdline>
J2VwaWtfcHl0aG9uJywgJy1waHQnLCAnMC41JywgJy1waCcsICc3LjUnLCAnLW50JywgJy1tYScsICcyMDAnLCAnLWltYWUnLCAnPGluZmlsZS5tYWU+JywgJy1vbWFlJywgJzxvdXRmaWxlLm1hZT4n

> <r_lp_tautomer_probability>
1

> <r_epik_Ionization_Penalty>
  0.0000

> <r_epik_Ionization_Penalty_Charging>
  0.0000

> <r_epik_Ionization_Penalty_Neutral>
  0.0000

> <r_epik_State_Penalty>
 -0.0000

> <r_epik_Charging_Adjusted_Penalty>
0

> <i_epik_Tot_Q>
0

> <i_epik_Tot_abs_Q>
0

> <s_lp_Force_Field>
OPLS3e

> <r_lp_Energy>
54.516307

> <b_lp_Chiralities_Consistent>
1

> <s_lp_Variant>
sdf/inactives_sanitized.sdf:292-1

$$$$
sdf/inactives_sanitized.sdf:293
                    3D
 Schrodinger Suite 2020-1.
 80 83  0  0  1  0            999 V2000
    8.3795    0.8055    0.1135 C   0  0  0  0  0  0
    9.7679    0.9503    0.1282 N   0  0  0  0  0  0
   10.4316    1.8293    1.1106 C   0  0  0  0  0  0
   11.9440    1.5634    1.2662 C   0  0  0  0  0  0
   12.7030    1.6541   -0.0725 C   0  0  0  0  0  0
   11.9821    0.7180   -1.0568 C   0  0  0  0  0  0
   10.4731    1.0154   -1.1669 C   0  0  0  0  0  0
   14.1385    1.1052    0.0847 N   0  3  0  0  0  0
   15.2984    2.0066    0.5752 C   0  0  0  0  0  0
   16.5574    1.1170    0.5276 C   0  0  0  0  0  0
   15.0419    2.4832    2.0196 C   0  0  0  0  0  0
   15.4487    3.1977   -0.3965 C   0  0  0  0  0  0
   -1.6139   -4.0951    1.2917 C   0  0  0  0  0  0
   -2.2144   -3.4675    0.0134 C   0  0  0  0  0  0
   -2.1149   -1.9084   -0.0006 C   0  0  0  0  0  0
   -2.8946   -1.4232    1.2731 C   0  0  0  0  0  0
   -2.3027   -1.9951    2.5802 C   0  0  0  0  0  0
   -2.2860   -3.5363    2.5615 C   0  0  0  0  0  0
   -0.6977   -1.4760   -0.0162 N   0  0  0  0  0  0
   -2.8653   -1.4927   -1.3185 C   0  0  0  0  0  0
   -4.1839   -1.2204   -1.2703 N   0  0  0  0  0  0
   -2.2504   -1.4700   -2.3877 O   0  0  0  0  0  0
   -4.9896   -0.8025   -2.4146 C   0  0  0  0  0  0
   -4.6088    0.5266   -2.9250 C   0  0  0  0  0  0
   -4.3105    1.5707   -3.3251 N   0  0  0  0  0  0
   -0.2120   -0.2181   -0.1207 C   0  0  0  0  0  0
    1.2954   -0.0643   -0.0613 C   0  0  0  0  0  0
   -0.9403    0.7656   -0.2697 O   0  0  0  0  0  0
    2.1459   -1.1667    0.1199 C   0  0  0  0  0  0
    3.5273   -0.9969    0.1608 C   0  0  0  0  0  0
    4.0968    0.2735    0.0246 C   0  0  0  0  0  0
    3.2501    1.3727   -0.1512 C   0  0  0  0  0  0
    1.8688    1.2074   -0.1945 C   0  0  0  0  0  0
    5.5759    0.4534    0.0614 C   0  0  0  0  0  0
    6.1496    1.5092    0.7769 C   0  0  0  0  0  0
    7.5309    1.6808    0.8077 C   0  0  0  0  0  0
    7.8004   -0.2555   -0.5946 C   0  0  0  0  0  0
    6.4194   -0.4292   -0.6207 C   0  0  0  0  0  0
   10.2561    2.8692    0.8290 H   0  0  0  0  0  0
    9.9673    1.6805    2.0868 H   0  0  0  0  0  0
   12.3633    2.2358    2.0094 H   0  0  0  0  0  0
   12.0749    0.5772    1.7158 H   0  0  0  0  0  0
   12.6791    2.6728   -0.4607 H   0  0  0  0  0  0
   12.4658    0.7580   -2.0339 H   0  0  0  0  0  0
   12.0996   -0.3256   -0.7563 H   0  0  0  0  0  0
   10.0468    0.3034   -1.8734 H   0  0  0  0  0  0
   10.3112    2.0062   -1.5952 H   0  0  0  0  0  0
   14.0914    0.2732    0.6555 H   0  0  0  0  0  0
   17.4445    1.6669    0.8455 H   0  0  0  0  0  0
   16.7542    0.7459   -0.4795 H   0  0  0  0  0  0
   16.4642    0.2498    1.1834 H   0  0  0  0  0  0
   14.7605    1.6597    2.6775 H   0  0  0  0  0  0
   14.2636    3.2437    2.0665 H   0  0  0  0  0  0
   15.9365    2.9422    2.4427 H   0  0  0  0  0  0
   16.3272    3.7955   -0.1498 H   0  0  0  0  0  0
   14.5923    3.8711   -0.3587 H   0  0  0  0  0  0
   15.5627    2.8654   -1.4292 H   0  0  0  0  0  0
   -0.5407   -3.9030    1.3323 H   0  0  0  0  0  0
   -1.7259   -5.1796    1.2616 H   0  0  0  0  0  0
   -3.2295   -3.8280   -0.1710 H   0  0  0  0  0  0
   -1.6259   -3.8673   -0.8159 H   0  0  0  0  0  0
   -2.8070   -0.3383    1.3512 H   0  0  0  0  0  0
   -3.9669   -1.6184    1.2242 H   0  0  0  0  0  0
   -1.2886   -1.6196    2.7249 H   0  0  0  0  0  0
   -2.8801   -1.6421    3.4356 H   0  0  0  0  0  0
   -3.3110   -3.9063    2.6172 H   0  0  0  0  0  0
   -1.7784   -3.9145    3.4497 H   0  0  0  0  0  0
   -0.0558   -2.1503    0.3731 H   0  0  0  0  0  0
   -4.6444   -1.2169   -0.3720 H   0  0  0  0  0  0
   -4.9186   -1.5282   -3.2266 H   0  0  0  0  0  0
   -6.0363   -0.7596   -2.1137 H   0  0  0  0  0  0
    1.7553   -2.1682    0.2289 H   0  0  0  0  0  0
    4.1562   -1.8638    0.3038 H   0  0  0  0  0  0
    3.6608    2.3652   -0.2662 H   0  0  0  0  0  0
    1.2513    2.0832   -0.3376 H   0  0  0  0  0  0
    5.5245    2.2038    1.3195 H   0  0  0  0  0  0
    7.9262    2.5141    1.3692 H   0  0  0  0  0  0
    8.4178   -0.9658   -1.1250 H   0  0  0  0  0  0
    6.0068   -1.2547   -1.1825 H   0  0  0  0  0  0
   14.4077    0.7756   -0.8312 H   0  0  0  0  0  0
  1  2  1  0  0  0
  1 36  2  0  0  0
  1 37  1  0  0  0
  2  3  1  0  0  0
  2  7  1  0  0  0
  3  4  1  0  0  0
  3 39  1  0  0  0
  3 40  1  0  0  0
  4  5  1  0  0  0
  4 41  1  0  0  0
  4 42  1  0  0  0
  5  6  1  0  0  0
  5  8  1  0  0  0
  5 43  1  0  0  0
  6  7  1  0  0  0
  6 44  1  0  0  0
  6 45  1  0  0  0
  7 46  1  0  0  0
  7 47  1  0  0  0
  8  9  1  0  0  0
  8 48  1  0  0  0
  8 80  1  0  0  0
  9 10  1  0  0  0
  9 11  1  0  0  0
  9 12  1  0  0  0
 10 49  1  0  0  0
 10 50  1  0  0  0
 10 51  1  0  0  0
 11 52  1  0  0  0
 11 53  1  0  0  0
 11 54  1  0  0  0
 12 55  1  0  0  0
 12 56  1  0  0  0
 12 57  1  0  0  0
 13 18  1  0  0  0
 13 14  1  0  0  0
 13 58  1  0  0  0
 13 59  1  0  0  0
 14 15  1  0  0  0
 14 60  1  0  0  0
 14 61  1  0  0  0
 15 20  1  0  0  0
 15 16  1  0  0  0
 15 19  1  0  0  0
 16 17  1  0  0  0
 16 62  1  0  0  0
 16 63  1  0  0  0
 17 18  1  0  0  0
 17 64  1  0  0  0
 17 65  1  0  0  0
 18 66  1  0  0  0
 18 67  1  0  0  0
 19 26  1  0  0  0
 19 68  1  0  0  0
 20 21  1  0  0  0
 20 22  2  0  0  0
 21 23  1  0  0  0
 21 69  1  0  0  0
 23 24  1  0  0  0
 23 70  1  0  0  0
 23 71  1  0  0  0
 24 25  3  0  0  0
 26 28  2  0  0  0
 26 27  1  0  0  0
 27 29  2  0  0  0
 27 33  1  0  0  0
 29 30  1  0  0  0
 29 72  1  0  0  0
 30 31  2  0  0  0
 30 73  1  0  0  0
 31 32  1  0  0  0
 31 34  1  0  0  0
 32 33  2  0  0  0
 32 74  1  0  0  0
 33 75  1  0  0  0
 34 35  2  0  0  0
 34 38  1  0  0  0
 35 36  1  0  0  0
 35 76  1  0  0  0
 36 77  1  0  0  0
 37 38  2  0  0  0
 37 78  1  0  0  0
 38 79  1  0  0  0
M  CHG  1   8   1
M  END
> <chembl_id>
CHEMBL199163

> <chembl_pref_name>
None

> <s_m_source_file>
sdf/inactives_sanitized.sdf

> <i_m_source_file_index>
293

> <i_lp_mmshare_version>
49012

> <i_m_ct_stereo_status>
1

> <i_f3d_flags>
0

> <s_epik_input>
W0NIM11DKFtDSDNdKShbQ0gzXSlbTkhdW0NIXShbQ0gyXVtDSDJdMSlbQ0gyXVtDSDJdTjFjMltjSF1bY0hdYyhbY0hdW2NIXTIpLWMoW2NIXVtjSF0zKVtjSF1bY0hdYzNDKD1PKVtOSF1DNChDKD1PKVtOSF1bQ0gyXUMjTilbQ0gyXVtDSDJdW0NIMl1bQ0gyXVtDSDJdNA==

> <s_epik_cmdline>
J2VwaWtfcHl0aG9uJywgJy1waHQnLCAnMC41JywgJy1waCcsICc3LjUnLCAnLW50JywgJy1tYScsICcyMDAnLCAnLWltYWUnLCAnPGluZmlsZS5tYWU+JywgJy1vbWFlJywgJzxvdXRmaWxlLm1hZT4n

> <r_lp_tautomer_probability>
1

> <r_epik_Ionization_Penalty>
  0.0015

> <r_epik_Ionization_Penalty_Charging>
  0.0013

> <r_epik_Ionization_Penalty_Neutral>
  0.0002

> <r_epik_State_Penalty>
 -0.0000

> <r_epik_Charging_Adjusted_Penalty>
0.00130124407821171

> <i_epik_Tot_Q>
1

> <i_epik_Tot_abs_Q>
1

> <s_lp_Force_Field>
OPLS3e

> <r_lp_Energy>
66.393965

> <b_lp_Chiralities_Consistent>
1

> <s_lp_Variant>
sdf/inactives_sanitized.sdf:293-1

$$$$
sdf/inactives_sanitized.sdf:294
                    3D
 Schrodinger Suite 2020-1.
 59 62  0  0  1  0            999 V2000
   -0.6298    1.9523    2.7633 O   0  0  0  0  0  0
   -0.4355    2.5329    1.6929 C   0  0  0  0  0  0
   -0.0570    1.8616    0.5795 N   0  0  0  0  0  0
    0.3760    0.4523    0.4283 C   0  0  0  0  0  0
   -0.5538   -0.5814    1.1764 C   0  0  0  0  0  0
   -0.5134   -2.0595    0.7189 C   0  0  0  0  0  0
   -0.5623   -2.2143   -0.8069 C   0  0  0  0  0  0
    0.5241   -1.3699   -1.4846 C   0  0  0  0  0  0
    0.3979    0.1173   -1.0998 C   0  0  0  0  0  0
    1.8648    0.3515    0.9163 C   0  0  0  0  0  0
    2.6432    1.2905    0.7246 O   0  0  0  0  0  0
    2.2858   -0.7916    1.4882 N   0  0  0  0  0  0
    3.6543   -1.0496    1.9263 C   0  0  0  0  0  0
    4.2038   -0.2405    3.0872 C   0  0  0  0  0  0
    3.8561   -1.6931    3.2813 C   0  0  0  0  0  0
    4.5951   -1.3843    0.8427 C   0  0  0  0  0  0
    5.3332   -1.6476   -0.0085 N   0  0  0  0  0  0
   -0.5889    3.8826    1.5472 N   0  0  0  0  0  0
   -0.1508    4.6260    0.3271 C   0  0  0  0  0  0
   -1.2712    5.6304   -0.0365 C   0  0  0  0  0  0
   -1.6004    6.5931    1.1304 C   0  0  0  0  0  0
   -0.4141    7.4845    1.5693 C   0  0  0  0  0  0
   -0.4218    8.7078    0.6433 C   0  0  0  0  0  0
   -1.8471    8.8118    0.0813 C   0  0  0  0  0  0
   -2.6360    7.6510    0.7005 C   0  0  0  0  0  0
   -2.1381    5.6495    2.2257 C   0  0  0  0  0  0
   -1.0379    4.6829    2.7203 C   0  0  0  0  0  0
    0.2534    2.4570   -0.1744 H   0  0  0  0  0  0
   -0.4464   -0.5047    2.2590 H   0  0  0  0  0  0
   -1.5802   -0.2329    1.0469 H   0  0  0  0  0  0
    0.3837   -2.5477    1.0983 H   0  0  0  0  0  0
   -1.3472   -2.6013    1.1671 H   0  0  0  0  0  0
   -0.4426   -3.2638   -1.0784 H   0  0  0  0  0  0
   -1.5443   -1.9127   -1.1748 H   0  0  0  0  0  0
    1.5111   -1.7439   -1.2086 H   0  0  0  0  0  0
    0.4525   -1.4772   -2.5675 H   0  0  0  0  0  0
    1.1407    0.7249   -1.6222 H   0  0  0  0  0  0
   -0.5152    0.5165   -1.5462 H   0  0  0  0  0  0
    1.6525   -1.5776    1.5075 H   0  0  0  0  0  0
    5.2553    0.0479    3.0773 H   0  0  0  0  0  0
    3.5705    0.5134    3.5564 H   0  0  0  0  0  0
    4.6665   -2.4121    3.4053 H   0  0  0  0  0  0
    2.9836   -1.9405    3.8869 H   0  0  0  0  0  0
    0.7856    5.1409    0.5375 H   0  0  0  0  0  0
   -0.0302    3.9873   -0.5480 H   0  0  0  0  0  0
   -0.9282    6.2065   -0.8969 H   0  0  0  0  0  0
   -2.1629    5.1090   -0.3907 H   0  0  0  0  0  0
   -0.5798    7.8154    2.5963 H   0  0  0  0  0  0
    0.5474    6.9741    1.6010 H   0  0  0  0  0  0
   -0.1293    9.6121    1.1784 H   0  0  0  0  0  0
    0.2923    8.5694   -0.1697 H   0  0  0  0  0  0
   -2.3060    9.7737    0.3139 H   0  0  0  0  0  0
   -1.8293    8.7179   -1.0054 H   0  0  0  0  0  0
   -3.1731    8.0133    1.5793 H   0  0  0  0  0  0
   -3.4119    7.2481    0.0478 H   0  0  0  0  0  0
   -2.4625    6.2425    3.0819 H   0  0  0  0  0  0
   -3.0317    5.1116    1.9019 H   0  0  0  0  0  0
   -0.1892    5.2395    3.1188 H   0  0  0  0  0  0
   -1.4819    4.0733    3.5089 H   0  0  0  0  0  0
  1  2  2  0  0  0
  2  3  1  0  0  0
  2 18  1  0  0  0
  3  4  1  0  0  0
  3 28  1  0  0  0
  4  5  1  0  0  0
  4  9  1  0  0  0
  4 10  1  0  0  0
  5  6  1  0  0  0
  5 29  1  0  0  0
  5 30  1  0  0  0
  6  7  1  0  0  0
  6 31  1  0  0  0
  6 32  1  0  0  0
  7  8  1  0  0  0
  7 33  1  0  0  0
  7 34  1  0  0  0
  8  9  1  0  0  0
  8 35  1  0  0  0
  8 36  1  0  0  0
  9 37  1  0  0  0
  9 38  1  0  0  0
 10 11  2  0  0  0
 10 12  1  0  0  0
 12 13  1  0  0  0
 12 39  1  0  0  0
 13 14  1  0  0  0
 13 15  1  0  0  0
 13 16  1  0  0  0
 14 15  1  0  0  0
 14 40  1  0  0  0
 14 41  1  0  0  0
 15 42  1  0  0  0
 15 43  1  0  0  0
 16 17  3  0  0  0
 18 19  1  0  0  0
 18 27  1  0  0  0
 19 20  1  0  0  0
 19 44  1  0  0  0
 19 45  1  0  0  0
 20 21  1  0  0  0
 20 46  1  0  0  0
 20 47  1  0  0  0
 21 22  1  0  0  0
 21 25  1  0  0  0
 21 26  1  0  0  0
 22 23  1  0  0  0
 22 48  1  0  0  0
 22 49  1  0  0  0
 23 24  1  0  0  0
 23 50  1  0  0  0
 23 51  1  0  0  0
 24 25  1  0  0  0
 24 52  1  0  0  0
 24 53  1  0  0  0
 25 54  1  0  0  0
 25 55  1  0  0  0
 26 27  1  0  0  0
 26 56  1  0  0  0
 26 57  1  0  0  0
 27 58  1  0  0  0
 27 59  1  0  0  0
M  END
> <chembl_id>
CHEMBL3640713

> <chembl_pref_name>
None

> <s_m_source_file>
sdf/inactives_sanitized.sdf

> <i_m_source_file_index>
294

> <i_lp_mmshare_version>
49012

> <i_m_ct_stereo_status>
1

> <i_f3d_flags>
0

> <s_epik_input>
W0NIMl0xW0NIMl1bQ0gyXVtDSDJdW0NIMl1DMShDKD1PKVtOSF1DMihDI04pW0NIMl1bQ0gyXTIpW05IXUMoPU8pTihbQ0gyXVtDSDJdMylbQ0gyXVtDSDJdQzM0W0NIMl1bQ0gyXVtDSDJdW0NIMl00

> <s_epik_cmdline>
J2VwaWtfcHl0aG9uJywgJy1waHQnLCAnMC41JywgJy1waCcsICc3LjUnLCAnLW50JywgJy1tYScsICcyMDAnLCAnLWltYWUnLCAnPGluZmlsZS5tYWU+JywgJy1vbWFlJywgJzxvdXRmaWxlLm1hZT4n

> <r_lp_tautomer_probability>
1

> <r_epik_Ionization_Penalty>
  0.0000

> <r_epik_Ionization_Penalty_Charging>
  0.0000

> <r_epik_Ionization_Penalty_Neutral>
  0.0000

> <r_epik_State_Penalty>
 -0.0000

> <r_epik_Charging_Adjusted_Penalty>
0

> <i_epik_Tot_Q>
0

> <i_epik_Tot_abs_Q>
0

> <s_lp_Force_Field>
OPLS3e

> <r_lp_Energy>
53.297883

> <b_lp_Chiralities_Consistent>
1

> <s_lp_Variant>
sdf/inactives_sanitized.sdf:294-1

$$$$
sdf/inactives_sanitized.sdf:295
                    3D
 Schrodinger Suite 2020-1.
 91 93  0  0  1  0            999 V2000
   -4.1094   -0.3008    2.6649 S   0  0  0  0  0  0
   -3.6568    0.5670    1.1942 N   0  0  2  0  0  0
   -2.8727   -0.0969    0.1170 C   0  0  2  0  0  0
   -1.3620   -0.0438    0.4532 C   0  0  0  0  0  0
   -0.6034   -0.9793   -0.1378 N   0  0  0  0  0  0
   -0.8897    0.8437    1.1675 O   0  0  0  0  0  0
    0.8549   -1.0372   -0.0798 C   0  0  2  0  0  0
    1.3975   -1.4495   -1.4520 C   0  0  0  0  0  0
    1.2904   -2.0190    1.0191 C   0  0  0  0  0  0
    2.5154   -0.8203   -1.8508 N   0  0  0  0  0  0
    0.8097   -2.3097   -2.1096 O   0  0  0  0  0  0
    3.1733   -1.0043   -3.1552 C   0  0  2  0  0  0
    4.5900   -1.5302   -2.8955 C   0  0  0  0  0  0
    3.2200    0.3430   -3.9394 C   0  0  0  0  0  0
    5.1028   -1.5336   -1.7717 O   0  0  0  0  0  0
    5.3500   -2.0360   -4.0371 C   0  0  0  0  0  0
   -3.2117    0.4987   -1.2820 C   0  0  0  0  0  0
    4.7382   -2.1291   -5.2466 O   0  0  0  0  0  0
    5.7139   -2.6268   -6.0495 C   0  0  0  0  0  0
    6.8351   -2.8295   -5.3985 N   0  0  0  0  0  0
    5.4165   -2.8729   -7.4928 C   0  0  0  0  0  0
   -2.5819   -0.5716    3.5598 C   0  0  0  0  0  0
   -4.9156    0.6149    3.4796 O   0  0  0  0  0  0
   -4.6366   -1.6126    2.2708 O   0  0  0  0  0  0
   -2.8288    1.9751   -1.5019 C   0  0  0  0  0  0
   -1.8872    2.2149   -2.4319 N   0  0  0  0  0  0
   -3.3747    2.8589   -0.8407 O   0  0  0  0  0  0
   -1.3480    3.5323   -2.7826 C   0  0  0  0  0  0
   -2.0079    4.2218   -4.0138 C   0  0  0  0  0  0
   -1.9111    3.3185   -5.2662 C   0  0  0  0  0  0
   -1.2594    5.5441   -4.2974 C   0  0  0  0  0  0
   -3.4953    4.5444   -3.7366 C   0  0  0  0  0  0
    6.5965   -2.4451   -4.0820 N   0  0  0  0  0  0
    1.9095    1.1717   -3.9857 C   0  0  0  0  0  0
    0.7151    0.3704   -4.5518 C   0  0  0  0  0  0
    2.1323    2.5066   -4.7306 C   0  0  0  0  0  0
    6.4038   -3.3952   -8.3366 C   0  0  0  0  0  0
    6.1264   -3.6265   -9.6815 C   0  0  0  0  0  0
    4.8611   -3.3349  -10.1850 C   0  0  0  0  0  0
    3.8711   -2.8142   -9.3554 C   0  0  0  0  0  0
    4.1484   -2.5833   -8.0105 C   0  0  0  0  0  0
   -2.0197   -1.8485    3.6285 C   0  0  0  0  0  0
   -0.8208   -2.0397    4.3093 C   0  0  0  0  0  0
   -0.1863   -0.9572    4.9219 C   0  0  0  0  0  0
   -0.7491    0.3189    4.8508 C   0  0  0  0  0  0
   -1.9495    0.5115    4.1727 C   0  0  0  0  0  0
    1.1322   -1.1642    5.6448 C   0  0  0  0  0  0
   -3.5767    1.5861    1.2566 H   0  0  0  0  0  0
   -3.1878   -1.1418    0.0949 H   0  0  0  0  0  0
   -1.0420   -1.6754   -0.7237 H   0  0  0  0  0  0
    1.2575   -0.0495    0.1552 H   0  0  0  0  0  0
    2.3762   -2.1150    1.0553 H   0  0  0  0  0  0
    0.8725   -3.0137    0.8587 H   0  0  0  0  0  0
    0.9622   -1.6747    1.9998 H   0  0  0  0  0  0
    2.9326   -0.1277   -1.2456 H   0  0  0  0  0  0
    2.6506   -1.7460   -3.7631 H   0  0  0  0  0  0
    4.0151    0.9778   -3.5414 H   0  0  0  0  0  0
    3.4977    0.1347   -4.9739 H   0  0  0  0  0  0
   -4.2840    0.4089   -1.4624 H   0  0  0  0  0  0
   -2.7465   -0.1191   -2.0531 H   0  0  0  0  0  0
   -1.4806    1.4279   -2.9159 H   0  0  0  0  0  0
   -1.3820    4.1980   -1.9167 H   0  0  0  0  0  0
   -0.2863    3.3810   -2.9789 H   0  0  0  0  0  0
   -2.3424    3.8030   -6.1433 H   0  0  0  0  0  0
   -2.4395    2.3743   -5.1290 H   0  0  0  0  0  0
   -0.8749    3.0806   -5.5063 H   0  0  0  0  0  0
   -0.2046    5.3693   -4.5152 H   0  0  0  0  0  0
   -1.3064    6.2221   -3.4441 H   0  0  0  0  0  0
   -1.6831    6.0712   -5.1533 H   0  0  0  0  0  0
   -3.9447    5.1029   -4.5588 H   0  0  0  0  0  0
   -3.6122    5.1449   -2.8334 H   0  0  0  0  0  0
   -4.0896    3.6394   -3.6051 H   0  0  0  0  0  0
    1.6549    1.4407   -2.9597 H   0  0  0  0  0  0
    0.1925    0.8916   -5.3529 H   0  0  0  0  0  0
   -0.0203    0.1750   -3.7708 H   0  0  0  0  0  0
    1.0209   -0.5945   -4.9557 H   0  0  0  0  0  0
    3.1747    2.6440   -5.0201 H   0  0  0  0  0  0
    1.8652    3.3533   -4.0979 H   0  0  0  0  0  0
    1.5438    2.5878   -5.6439 H   0  0  0  0  0  0
    7.3883   -3.6247   -7.9551 H   0  0  0  0  0  0
    6.8893   -4.0300  -10.3312 H   0  0  0  0  0  0
    4.6459   -3.5141  -11.2281 H   0  0  0  0  0  0
    2.8920   -2.5911   -9.7533 H   0  0  0  0  0  0
    3.3718   -2.1796   -7.3769 H   0  0  0  0  0  0
   -2.4984   -2.6913    3.1520 H   0  0  0  0  0  0
   -0.3857   -3.0274    4.3556 H   0  0  0  0  0  0
   -0.2595    1.1613    5.3172 H   0  0  0  0  0  0
   -2.3793    1.5009    4.1139 H   0  0  0  0  0  0
    1.7494   -0.2661    5.6005 H   0  0  0  0  0  0
    1.7106   -1.9629    5.1786 H   0  0  0  0  0  0
    0.9601   -1.4218    6.6900 H   0  0  0  0  0  0
  1 23  2  0  0  0
  1 24  2  0  0  0
  1  2  1  0  0  0
  1 22  1  0  0  0
  2  3  1  0  0  0
  2 48  1  0  0  0
  3  4  1  0  0  0
  3 17  1  0  0  0
  3 49  1  0  0  0
  4  5  1  0  0  0
  4  6  2  0  0  0
  5  7  1  0  0  0
  5 50  1  0  0  0
  7  8  1  0  0  0
  7  9  1  0  0  0
  7 51  1  0  0  0
  8 10  1  0  0  0
  8 11  2  0  0  0
  9 52  1  0  0  0
  9 53  1  0  0  0
  9 54  1  0  0  0
 10 12  1  0  0  0
 10 55  1  0  0  0
 12 13  1  0  0  0
 12 14  1  0  0  0
 12 56  1  0  0  0
 13 15  2  0  0  0
 13 16  1  0  0  0
 14 34  1  0  0  0
 14 57  1  0  0  0
 14 58  1  0  0  0
 16 33  2  0  0  0
 16 18  1  0  0  0
 17 25  1  0  0  0
 17 59  1  0  0  0
 17 60  1  0  0  0
 18 19  1  0  0  0
 19 20  2  0  0  0
 19 21  1  0  0  0
 20 33  1  0  0  0
 21 37  2  0  0  0
 21 41  1  0  0  0
 22 42  2  0  0  0
 22 46  1  0  0  0
 25 26  1  0  0  0
 25 27  2  0  0  0
 26 28  1  0  0  0
 26 61  1  0  0  0
 28 29  1  0  0  0
 28 62  1  0  0  0
 28 63  1  0  0  0
 29 30  1  0  0  0
 29 31  1  0  0  0
 29 32  1  0  0  0
 30 64  1  0  0  0
 30 65  1  0  0  0
 30 66  1  0  0  0
 31 67  1  0  0  0
 31 68  1  0  0  0
 31 69  1  0  0  0
 32 70  1  0  0  0
 32 71  1  0  0  0
 32 72  1  0  0  0
 34 35  1  0  0  0
 34 36  1  0  0  0
 34 73  1  0  0  0
 35 74  1  0  0  0
 35 75  1  0  0  0
 35 76  1  0  0  0
 36 77  1  0  0  0
 36 78  1  0  0  0
 36 79  1  0  0  0
 37 38  1  0  0  0
 37 80  1  0  0  0
 38 39  2  0  0  0
 38 81  1  0  0  0
 39 40  1  0  0  0
 39 82  1  0  0  0
 40 41  2  0  0  0
 40 83  1  0  0  0
 41 84  1  0  0  0
 42 43  1  0  0  0
 42 85  1  0  0  0
 43 44  2  0  0  0
 43 86  1  0  0  0
 44 45  1  0  0  0
 44 47  1  0  0  0
 45 46  2  0  0  0
 45 87  1  0  0  0
 46 88  1  0  0  0
 47 89  1  0  0  0
 47 90  1  0  0  0
 47 91  1  0  0  0
M  END
> <chembl_id>
CHEMBL383674

> <chembl_pref_name>
None

> <i_m_ct_stereo_status>
1

> <s_m_source_file>
sdf/inactives_sanitized.sdf

> <i_m_source_file_index>
295

> <i_lp_mmshare_version>
49012

> <i_f3d_flags>
0

> <s_epik_input>
W2NIXTFbY0hdYyhbQ0gzXSlbY0hdW2NIXWMxUyg9TykoPU8pW05IXVtDQEBIXShbQ0gyXUMoPU8pW05IXVtDSDJdQyhbQ0gzXSkoW0NIM10pW0NIM10pQyg9TylbTkhdW0NAQEhdKFtDSDNdKUMoPU8pW05IXVtDQEBIXShbQ0gyXVtDSF0oW0NIM10pW0NIM10pQyg9TyljMm9jKG5uMiktYzNbY0hdW2NIXVtjSF1bY0hdW2NIXTM=

> <s_epik_cmdline>
J2VwaWtfcHl0aG9uJywgJy1waHQnLCAnMC41JywgJy1waCcsICc3LjUnLCAnLW50JywgJy1tYScsICcyMDAnLCAnLWltYWUnLCAnPGluZmlsZS5tYWU+JywgJy1vbWFlJywgJzxvdXRmaWxlLm1hZT4n

> <r_lp_tautomer_probability>
1

> <r_epik_Ionization_Penalty>
  0.0009

> <r_epik_Ionization_Penalty_Charging>
  0.0000

> <r_epik_Ionization_Penalty_Neutral>
  0.0009

> <r_epik_State_Penalty>
 -0.0000

> <r_epik_Charging_Adjusted_Penalty>
0

> <i_epik_Tot_Q>
0

> <i_epik_Tot_abs_Q>
0

> <s_lp_Force_Field>
OPLS3e

> <r_lp_Energy>
28.71518

> <b_lp_Chiralities_Consistent>
1

> <s_lp_Variant>
sdf/inactives_sanitized.sdf:295-1

$$$$
sdf/inactives_sanitized.sdf:296
                    3D
 Schrodinger Suite 2020-1.
 44 46  0  0  1  0            999 V2000
   -0.0637    2.0938    1.5225 C   0  0  0  0  0  0
   -0.6933    1.3018    0.3525 C   0  0  0  0  0  0
   -0.5064   -0.5141    0.3971 S   0  0  0  0  0  0
    1.2316   -0.7254   -0.0395 C   0  0  0  0  0  0
    2.0033    0.2461   -0.3989 N   0  0  0  0  0  0
    3.3686   -0.0205   -0.7139 C   0  0  0  0  0  0
    3.8168   -1.3711   -0.6230 N   0  0  0  0  0  0
    2.9908   -2.2930   -0.2562 C   0  0  0  0  0  0
    1.6590   -2.0450    0.0568 N   0  0  0  0  0  0
    4.1323    0.8815   -1.0494 O   0  0  0  0  0  0
    3.4445   -4.0303   -0.0833 S   0  0  0  0  0  0
    5.2662   -3.9731   -0.2013 C   0  0  0  0  0  0
    5.9163   -3.4307    1.0659 C   0  0  0  0  0  0
    5.9326   -4.2104    2.2263 C   0  0  0  0  0  0
    6.5321   -3.7229    3.3846 C   0  0  0  0  0  0
    7.1193   -2.4594    3.3781 C   0  0  0  0  0  0
    7.1150   -1.6803    2.2230 C   0  0  0  0  0  0
    6.5164   -2.1680    1.0645 C   0  0  0  0  0  0
   -0.7216    1.7619    2.8835 C   0  0  0  0  0  0
   -0.0287    2.5120    4.0397 C   0  0  0  0  0  0
   -0.0124    4.0374    3.7982 C   0  0  0  0  0  0
    0.5433    4.4087    2.4058 C   0  0  0  0  0  0
   -0.1623    3.6183    1.2848 C   0  0  0  0  0  0
    0.9956    1.8417    1.5927 H   0  0  0  0  0  0
   -1.7639    1.5068    0.3132 H   0  0  0  0  0  0
   -0.3057    1.6614   -0.6018 H   0  0  0  0  0  0
    5.6196   -4.9932   -0.3562 H   0  0  0  0  0  0
    5.5809   -3.4176   -1.0861 H   0  0  0  0  0  0
    5.4771   -5.1902    2.2324 H   0  0  0  0  0  0
    6.5420   -4.3214    4.2834 H   0  0  0  0  0  0
    7.5842   -2.0808    4.2765 H   0  0  0  0  0  0
    7.5739   -0.7026    2.2254 H   0  0  0  0  0  0
    6.5172   -1.5613    0.1704 H   0  0  0  0  0  0
   -1.7866    1.9987    2.8535 H   0  0  0  0  0  0
   -0.6830    0.6879    3.0682 H   0  0  0  0  0  0
   -0.5308    2.2900    4.9821 H   0  0  0  0  0  0
    0.9949    2.1493    4.1468 H   0  0  0  0  0  0
   -1.0281    4.4246    3.8925 H   0  0  0  0  0  0
    0.5722    4.5308    4.5757 H   0  0  0  0  0  0
    0.4316    5.4800    2.2341 H   0  0  0  0  0  0
    1.6151    4.2055    2.3753 H   0  0  0  0  0  0
    0.2810    3.8716    0.3205 H   0  0  0  0  0  0
   -1.2078    3.9199    1.1972 H   0  0  0  0  0  0
    1.0337   -2.7854    0.3385 H   0  0  0  0  0  0
  1  2  1  0  0  0
  1 19  1  0  0  0
  1 23  1  0  0  0
  1 24  1  0  0  0
  2  3  1  0  0  0
  2 25  1  0  0  0
  2 26  1  0  0  0
  3  4  1  0  0  0
  4  9  1  0  0  0
  4  5  2  0  0  0
  5  6  1  0  0  0
  6  7  1  0  0  0
  6 10  2  0  0  0
  7  8  2  0  0  0
  8  9  1  0  0  0
  8 11  1  0  0  0
  9 44  1  0  0  0
 11 12  1  0  0  0
 12 13  1  0  0  0
 12 27  1  0  0  0
 12 28  1  0  0  0
 13 14  2  0  0  0
 13 18  1  0  0  0
 14 15  1  0  0  0
 14 29  1  0  0  0
 15 16  2  0  0  0
 15 30  1  0  0  0
 16 17  1  0  0  0
 16 31  1  0  0  0
 17 18  2  0  0  0
 17 32  1  0  0  0
 18 33  1  0  0  0
 19 20  1  0  0  0
 19 34  1  0  0  0
 19 35  1  0  0  0
 20 21  1  0  0  0
 20 36  1  0  0  0
 20 37  1  0  0  0
 21 22  1  0  0  0
 21 38  1  0  0  0
 21 39  1  0  0  0
 22 23  1  0  0  0
 22 40  1  0  0  0
 22 41  1  0  0  0
 23 42  1  0  0  0
 23 43  1  0  0  0
M  END
> <chembl_id>
CHEMBL1836519

> <chembl_pref_name>
None

> <s_m_source_file>
sdf/inactives_sanitized.sdf

> <i_m_source_file_index>
296

> <i_lp_mmshare_version>
49012

> <i_m_ct_stereo_status>
1

> <i_f3d_flags>
0

> <s_epik_input>
W0NIMl0xW0NIMl1bQ0gyXVtDSDJdW0NIMl1bQ0hdMVtDSDJdU2MyW25IXWMoPU8pbmMobjIpU1tDSDJdYzNbY0hdW2NIXVtjSF1bY0hdW2NIXTM=

> <s_epik_cmdline>
J2VwaWtfcHl0aG9uJywgJy1waHQnLCAnMC41JywgJy1waCcsICc3LjUnLCAnLW50JywgJy1tYScsICcyMDAnLCAnLWltYWUnLCAnPGluZmlsZS5tYWU+JywgJy1vbWFlJywgJzxvdXRmaWxlLm1hZT4n

> <r_lp_tautomer_probability>
0.000308339100536342

> <r_epik_Ionization_Penalty>
  0.4671

> <r_epik_Ionization_Penalty_Charging>
  0.4645

> <r_epik_Ionization_Penalty_Neutral>
  0.0027

> <r_epik_State_Penalty>
  0.4407

> <r_epik_Charging_Adjusted_Penalty>
0.905146290648946

> <i_epik_Tot_Q>
0

> <i_epik_Tot_abs_Q>
0

> <s_lp_Force_Field>
OPLS3e

> <r_lp_Energy>
37.430445

> <b_lp_Chiralities_Consistent>
1

> <s_lp_Variant>
sdf/inactives_sanitized.sdf:296-1

$$$$
sdf/inactives_sanitized.sdf:296
                    3D
 Schrodinger Suite 2020-1.
 44 46  0  0  1  0            999 V2000
   -0.5859    2.3869    1.5906 C   0  0  0  0  0  0
   -1.2965    1.4527    0.5821 C   0  0  0  0  0  0
   -1.2004   -0.3422    0.9105 S   0  0  0  0  0  0
    0.5205   -0.7289    0.5185 C   0  0  0  0  0  0
    1.0418   -1.9612    0.8616 N   0  0  0  0  0  0
    2.3536   -2.3067    0.6469 C   0  0  0  0  0  0
    3.1458   -1.3569   -0.0435 N   0  0  0  0  0  0
    2.5888   -0.2417   -0.3919 C   0  0  0  0  0  0
    1.2995    0.1620   -0.0221 N   0  0  0  0  0  0
    2.6873   -3.4116    1.0674 O   0  0  0  0  0  0
    3.4802    0.9115   -1.4627 S   0  0  0  0  0  0
    5.0485    0.0414   -1.8188 C   0  0  0  0  0  0
    4.8800   -1.0901   -2.8262 C   0  0  0  0  0  0
    5.0628   -2.4181   -2.4290 C   0  0  0  0  0  0
    4.9150   -3.4485   -3.3534 C   0  0  0  0  0  0
    4.5922   -3.1484   -4.6750 C   0  0  0  0  0  0
    4.4182   -1.8270   -5.0810 C   0  0  0  0  0  0
    4.5658   -0.7963   -4.1564 C   0  0  0  0  0  0
   -1.1863    2.2895    3.0136 C   0  0  0  0  0  0
   -0.4108    3.1751    4.0106 C   0  0  0  0  0  0
   -0.3541    4.6453    3.5405 C   0  0  0  0  0  0
    0.1404    4.7816    2.0836 C   0  0  0  0  0  0
   -0.6478    3.8611    1.1292 C   0  0  0  0  0  0
    0.4670    2.1086    1.6532 H   0  0  0  0  0  0
   -2.3564    1.7070    0.5428 H   0  0  0  0  0  0
   -0.9285    1.6351   -0.4286 H   0  0  0  0  0  0
    5.7386    0.7713   -2.2435 H   0  0  0  0  0  0
    5.5168   -0.3031   -0.8956 H   0  0  0  0  0  0
    5.3140   -2.6551   -1.4052 H   0  0  0  0  0  0
    5.0503   -4.4753   -3.0466 H   0  0  0  0  0  0
    4.4771   -3.9480   -5.3919 H   0  0  0  0  0  0
    4.1702   -1.6028   -6.1081 H   0  0  0  0  0  0
    4.4308    0.2281   -4.4722 H   0  0  0  0  0  0
   -2.2430    2.5617    2.9951 H   0  0  0  0  0  0
   -1.1741    1.2546    3.3573 H   0  0  0  0  0  0
   -0.8715    3.1177    4.9973 H   0  0  0  0  0  0
    0.6037    2.7901    4.1256 H   0  0  0  0  0  0
   -1.3497    5.0845    3.6218 H   0  0  0  0  0  0
    0.2866    5.2242    4.2067 H   0  0  0  0  0  0
    0.0549    5.8187    1.7571 H   0  0  0  0  0  0
    1.2018    4.5333    2.0350 H   0  0  0  0  0  0
   -0.2462    3.9495    0.1186 H   0  0  0  0  0  0
   -1.6859    4.1873    1.0447 H   0  0  0  0  0  0
    0.4585   -2.6376    1.3313 H   0  0  0  0  0  0
  1  2  1  0  0  0
  1 19  1  0  0  0
  1 23  1  0  0  0
  1 24  1  0  0  0
  2  3  1  0  0  0
  2 25  1  0  0  0
  2 26  1  0  0  0
  3  4  1  0  0  0
  4  9  2  0  0  0
  4  5  1  0  0  0
  5  6  1  0  0  0
  5 44  1  0  0  0
  6  7  1  0  0  0
  6 10  2  0  0  0
  7  8  2  0  0  0
  8  9  1  0  0  0
  8 11  1  0  0  0
 11 12  1  0  0  0
 12 13  1  0  0  0
 12 27  1  0  0  0
 12 28  1  0  0  0
 13 14  2  0  0  0
 13 18  1  0  0  0
 14 15  1  0  0  0
 14 29  1  0  0  0
 15 16  2  0  0  0
 15 30  1  0  0  0
 16 17  1  0  0  0
 16 31  1  0  0  0
 17 18  2  0  0  0
 17 32  1  0  0  0
 18 33  1  0  0  0
 19 20  1  0  0  0
 19 34  1  0  0  0
 19 35  1  0  0  0
 20 21  1  0  0  0
 20 36  1  0  0  0
 20 37  1  0  0  0
 21 22  1  0  0  0
 21 38  1  0  0  0
 21 39  1  0  0  0
 22 23  1  0  0  0
 22 40  1  0  0  0
 22 41  1  0  0  0
 23 42  1  0  0  0
 23 43  1  0  0  0
M  END
> <chembl_id>
CHEMBL1836519

> <chembl_pref_name>
None

> <s_m_source_file>
sdf/inactives_sanitized.sdf

> <i_m_source_file_index>
296

> <i_lp_mmshare_version>
49012

> <i_m_ct_stereo_status>
1

> <i_f3d_flags>
0

> <s_epik_input>
W0NIMl0xW0NIMl1bQ0gyXVtDSDJdW0NIMl1bQ0hdMVtDSDJdU2MyW25IXWMoPU8pbmMobjIpU1tDSDJdYzNbY0hdW2NIXVtjSF1bY0hdW2NIXTM=

> <s_epik_cmdline>
J2VwaWtfcHl0aG9uJywgJy1waHQnLCAnMC41JywgJy1waCcsICc3LjUnLCAnLW50JywgJy1tYScsICcyMDAnLCAnLWltYWUnLCAnPGluZmlsZS5tYWU+JywgJy1vbWFlJywgJzxvdXRmaWxlLm1hZT4n

> <r_lp_tautomer_probability>
0.986814540016624

> <r_epik_Ionization_Penalty>
  0.5949

> <r_epik_Ionization_Penalty_Charging>
  0.0010

> <r_epik_Ionization_Penalty_Neutral>
  0.5939

> <r_epik_State_Penalty>
  0.5330

> <r_epik_Charging_Adjusted_Penalty>
0.533968587416377

> <i_epik_Tot_Q>
0

> <i_epik_Tot_abs_Q>
0

> <s_lp_Force_Field>
OPLS3e

> <r_lp_Energy>
39.581016

> <b_lp_Chiralities_Consistent>
1

> <s_lp_Variant>
sdf/inactives_sanitized.sdf:296-2

$$$$
sdf/inactives_sanitized.sdf:297
                    3D
 Schrodinger Suite 2020-1.
 38 40  0  0  1  0            999 V2000
   -2.0560    2.6015   -0.3848 C   0  0  0  0  0  0
   -3.3228    2.0188   -0.5172 C   0  0  0  0  0  0
   -4.4292    2.7894   -0.8692 C   0  0  0  0  0  0
   -4.2829    4.1562   -1.0904 C   0  0  0  0  0  0
   -3.0306    4.7534   -0.9582 C   0  0  0  0  0  0
   -1.9123    3.9891   -0.6049 C   0  0  0  0  0  0
   -0.8842    1.6994    0.0053 C   0  0  0  0  0  0
    0.1548    1.2993   -1.4398 S   0  0  0  0  0  0
    1.4496    0.2730   -0.7083 C   0  0  0  0  0  0
    2.3234   -0.1414   -1.5670 N   0  5  0  0  0  0
    3.3473   -0.9221   -1.1476 C   0  0  0  0  0  0
    3.4096   -1.2558    0.2463 N   0  0  0  0  0  0
    2.4774   -0.7845    1.0205 C   0  0  0  0  0  0
    1.4245    0.0255    0.5701 N   0  0  0  0  0  0
    4.1951   -1.3308   -1.9374 O   0  0  0  0  0  0
    2.4877   -1.1645    2.7865 S   0  0  0  0  0  0
    3.9727   -2.2094    2.9424 C   0  0  0  0  0  0
    4.1769   -2.6531    4.3816 C   0  0  0  0  0  0
    4.9597   -1.8819    5.2456 C   0  0  0  0  0  0
    5.1547   -2.2942    6.5614 C   0  0  0  0  0  0
    4.5694   -3.4774    7.0077 C   0  0  0  0  0  0
    3.7911   -4.2527    6.1505 C   0  0  0  0  0  0
    3.5958   -3.8411    4.8346 C   0  0  0  0  0  0
   -0.6282    4.6722   -0.4738 C   0  0  0  0  0  0
    0.3891    5.2139   -0.3694 N   0  0  0  0  0  0
   -3.4542    0.9591   -0.3523 H   0  0  0  0  0  0
   -5.3996    2.3261   -0.9711 H   0  0  0  0  0  0
   -5.1400    4.7538   -1.3637 H   0  0  0  0  0  0
   -2.9415    5.8171   -1.1328 H   0  0  0  0  0  0
   -0.2924    2.1814    0.7847 H   0  0  0  0  0  0
   -1.2580    0.7713    0.4411 H   0  0  0  0  0  0
    3.8803   -3.0866    2.2998 H   0  0  0  0  0  0
    4.8519   -1.6613    2.5998 H   0  0  0  0  0  0
    5.4139   -0.9645    4.8999 H   0  0  0  0  0  0
    5.7568   -1.6999    7.2328 H   0  0  0  0  0  0
    4.7208   -3.7971    8.0282 H   0  0  0  0  0  0
    3.3418   -5.1686    6.5048 H   0  0  0  0  0  0
    2.9922   -4.4426    4.1704 H   0  0  0  0  0  0
  1  6  1  0  0  0
  1  2  2  0  0  0
  1  7  1  0  0  0
  2  3  1  0  0  0
  2 26  1  0  0  0
  3  4  2  0  0  0
  3 27  1  0  0  0
  4  5  1  0  0  0
  4 28  1  0  0  0
  5  6  2  0  0  0
  5 29  1  0  0  0
  6 24  1  0  0  0
  7  8  1  0  0  0
  7 30  1  0  0  0
  7 31  1  0  0  0
  8  9  1  0  0  0
  9 14  2  0  0  0
  9 10  1  0  0  0
 10 11  1  0  0  0
 11 15  2  0  0  0
 11 12  1  0  0  0
 12 13  2  0  0  0
 13 14  1  0  0  0
 13 16  1  0  0  0
 16 17  1  0  0  0
 17 18  1  0  0  0
 17 32  1  0  0  0
 17 33  1  0  0  0
 18 19  2  0  0  0
 18 23  1  0  0  0
 19 20  1  0  0  0
 19 34  1  0  0  0
 20 21  2  0  0  0
 20 35  1  0  0  0
 21 22  1  0  0  0
 21 36  1  0  0  0
 22 23  2  0  0  0
 22 37  1  0  0  0
 23 38  1  0  0  0
 24 25  3  0  0  0
M  CHG  1  10  -1
M  END
> <chembl_id>
CHEMBL1836507

> <chembl_pref_name>
None

> <s_m_source_file>
sdf/inactives_sanitized.sdf

> <i_m_source_file_index>
297

> <i_lp_mmshare_version>
49012

> <i_m_ct_stereo_status>
1

> <i_f3d_flags>
0

> <s_epik_input>
TiNDYzFbY0hdW2NIXVtjSF1bY0hdYzFbQ0gyXVNjMltuSF1jKD1PKW5jKG4yKVNbQ0gyXWMzW2NIXVtjSF1bY0hdW2NIXVtjSF0z

> <s_epik_cmdline>
J2VwaWtfcHl0aG9uJywgJy1waHQnLCAnMC41JywgJy1waCcsICc3LjUnLCAnLW50JywgJy1tYScsICcyMDAnLCAnLWltYWUnLCAnPGluZmlsZS5tYWU+JywgJy1vbWFlJywgJzxvdXRmaWxlLm1hZT4n

> <r_lp_tautomer_probability>
1

> <r_epik_Ionization_Penalty>
  0.3245

> <r_epik_Ionization_Penalty_Charging>
  0.0003

> <r_epik_Ionization_Penalty_Neutral>
  0.3242

> <r_epik_State_Penalty>
 -0.0000

> <r_epik_Charging_Adjusted_Penalty>
0.000330722952361958

> <i_epik_Tot_Q>
-1

> <i_epik_Tot_abs_Q>
1

> <s_lp_Force_Field>
OPLS3e

> <r_lp_Energy>
45.885966

> <b_lp_Chiralities_Consistent>
1

> <s_lp_Variant>
sdf/inactives_sanitized.sdf:297-1

$$$$
sdf/inactives_sanitized.sdf:298
                    3D
 Schrodinger Suite 2020-1.
 63 67  0  0  1  0            999 V2000
   -2.6135   -3.6007    3.9724 C   0  0  0  0  0  0
   -2.0807   -3.0249    2.6498 C   0  0  2  0  0  0
   -0.5305   -2.9332    2.6321 C   0  0  0  0  0  0
   -0.0281   -2.3263    1.3039 C   0  0  0  0  0  0
   -0.6232   -0.9063    1.1232 C   0  0  2  0  0  0
   -2.1559   -1.0972    0.9844 C   0  0  0  0  0  0
   -2.7277   -1.6563    2.3042 C   0  0  0  0  0  0
    0.0078   -0.1063   -0.0657 C   0  0  2  0  0  0
    1.4705   -0.0334    0.0209 N   0  0  0  0  0  0
    2.3512   -0.6605   -0.7833 C   0  0  0  0  0  0
    2.0057   -1.4036   -1.7047 O   0  0  0  0  0  0
    3.8178   -0.4293   -0.4846 C   0  0  0  0  0  0
    4.7875   -1.2662   -1.0581 C   0  0  0  0  0  0
    6.1433   -1.0747   -0.7963 C   0  0  0  0  0  0
    6.5554   -0.0427    0.0431 C   0  0  0  0  0  0
    5.6089    0.8083    0.6234 C   0  0  0  0  0  0
    4.2477    0.6137    0.3557 C   0  0  0  0  0  0
    6.0230    1.8538    1.4750 N   0  0  0  0  0  0
    7.0954    1.8757    2.3358 C   0  0  0  0  0  0
    7.0758    3.1214    2.9425 C   0  0  0  0  0  0
    6.0714    3.8603    2.5106 N   0  0  0  0  0  0
    5.4536    3.0984    1.6395 C   0  0  0  0  0  0
   -0.5089    1.3539   -0.1794 C   0  0  0  0  0  0
   -0.7754    1.9538    0.8648 O   0  0  0  0  0  0
   -0.6300    1.9310   -1.4053 N   0  0  0  0  0  0
   -0.3619    1.2345   -2.6712 C   0  0  0  0  0  0
   -0.3332    2.3563   -3.7069 C   0  0  2  0  0  0
    1.3105    3.0654   -3.6888 Cl  0  0  0  0  0  0
   -1.3048    3.3950   -3.1627 C   0  0  1  0  0  0
   -2.6408    3.1061   -3.5475 O   0  0  0  0  0  0
   -3.4860    3.6633   -2.5594 C   0  0  0  0  0  0
   -2.7541    3.4154   -1.2549 C   0  0  0  0  0  0
   -3.2531    3.3491   -0.1333 O   0  0  0  0  0  0
   -1.2815    3.2414   -1.6337 C   0  0  1  0  0  0
   -2.3638   -2.9566    4.8165 H   0  0  0  0  0  0
   -2.1925   -4.5869    4.1710 H   0  0  0  0  0  0
   -3.6984   -3.7085    3.9465 H   0  0  0  0  0  0
   -2.3566   -3.7066    1.8428 H   0  0  0  0  0  0
   -0.1882   -2.3235    3.4702 H   0  0  0  0  0  0
   -0.0926   -3.9180    2.8002 H   0  0  0  0  0  0
    1.0602   -2.2797    1.3398 H   0  0  0  0  0  0
   -0.2399   -2.9578    0.4394 H   0  0  0  0  0  0
   -0.4051   -0.3382    2.0310 H   0  0  0  0  0  0
   -2.6396   -0.1422    0.7786 H   0  0  0  0  0  0
   -2.4026   -1.7141    0.1185 H   0  0  0  0  0  0
   -2.5504   -0.9476    3.1151 H   0  0  0  0  0  0
   -3.8124   -1.7561    2.2459 H   0  0  0  0  0  0
   -0.2823   -0.6532   -0.9635 H   0  0  0  0  0  0
    1.8252    0.5571    0.7586 H   0  0  0  0  0  0
    4.5007   -2.0782   -1.7114 H   0  0  0  0  0  0
    6.8762   -1.7285   -1.2458 H   0  0  0  0  0  0
    7.6109    0.0925    0.2310 H   0  0  0  0  0  0
    3.5271    1.2776    0.8119 H   0  0  0  0  0  0
    7.7538    1.0259    2.4422 H   0  0  0  0  0  0
    7.7752    3.4840    3.6818 H   0  0  0  0  0  0
    4.5793    3.3741    1.0685 H   0  0  0  0  0  0
    0.5675    0.6652   -2.6628 H   0  0  0  0  0  0
   -1.1805    0.5431   -2.8766 H   0  0  0  0  0  0
   -0.5937    2.0111   -4.7080 H   0  0  0  0  0  0
   -1.0468    4.3999   -3.5057 H   0  0  0  0  0  0
   -3.6113    4.7341   -2.7247 H   0  0  0  0  0  0
   -4.4676    3.1893   -2.5719 H   0  0  0  0  0  0
   -0.6778    4.0277   -1.1789 H   0  0  0  0  0  0
  1  2  1  0  0  0
  1 35  1  0  0  0
  1 36  1  0  0  0
  1 37  1  0  0  0
  2  3  1  0  0  0
  2  7  1  0  0  0
  2 38  1  0  0  0
  3  4  1  0  0  0
  3 39  1  0  0  0
  3 40  1  0  0  0
  4  5  1  0  0  0
  4 41  1  0  0  0
  4 42  1  0  0  0
  5  6  1  0  0  0
  5  8  1  0  0  0
  5 43  1  0  0  0
  6  7  1  0  0  0
  6 44  1  0  0  0
  6 45  1  0  0  0
  7 46  1  0  0  0
  7 47  1  0  0  0
  8  9  1  0  0  0
  8 23  1  0  0  0
  8 48  1  0  0  0
  9 10  1  0  0  0
  9 49  1  0  0  0
 10 11  2  0  0  0
 10 12  1  0  0  0
 12 13  2  0  0  0
 12 17  1  0  0  0
 13 14  1  0  0  0
 13 50  1  0  0  0
 14 15  2  0  0  0
 14 51  1  0  0  0
 15 16  1  0  0  0
 15 52  1  0  0  0
 16 17  2  0  0  0
 16 18  1  0  0  0
 17 53  1  0  0  0
 18 19  1  0  0  0
 18 22  1  0  0  0
 19 20  2  0  0  0
 19 54  1  0  0  0
 20 21  1  0  0  0
 20 55  1  0  0  0
 21 22  2  0  0  0
 22 56  1  0  0  0
 23 24  2  0  0  0
 23 25  1  0  0  0
 25 26  1  0  0  0
 25 34  1  0  0  0
 26 27  1  0  0  0
 26 57  1  0  0  0
 26 58  1  0  0  0
 27 28  1  0  0  0
 27 29  1  0  0  0
 27 59  1  0  0  0
 29 30  1  0  0  0
 29 34  1  0  0  0
 29 60  1  0  0  0
 30 31  1  0  0  0
 31 32  1  0  0  0
 31 61  1  0  0  0
 31 62  1  0  0  0
 32 33  2  0  0  0
 32 34  1  0  0  0
 34 63  1  0  0  0
M  END
> <chembl_id>
CHEMBL3648414

> <chembl_pref_name>
None

> <i_m_ct_stereo_status>
1

> <s_m_source_file>
sdf/inactives_sanitized.sdf

> <i_m_source_file_index>
298

> <i_lp_mmshare_version>
49012

> <i_f3d_flags>
0

> <s_epik_input>
TzFbQ0gyXUMoPU8pW0NASF0oW0NASF0xMilOKFtDSDJdW0NAQEhdMkNsKUMoPU8pW0NASF0oW0NAQEhdKFtDSDJdW0NIMl0zKVtDSDJdW0NIMl1bQ0BIXTNbQ0gzXSlbTkhdQyg9TyljNFtjSF1bY0hdW2NIXWMoW2NIXTQpLW41W2NIXVtjSF1uW2NIXTU=

> <s_epik_cmdline>
J2VwaWtfcHl0aG9uJywgJy1waHQnLCAnMC41JywgJy1waCcsICc3LjUnLCAnLW50JywgJy1tYScsICcyMDAnLCAnLWltYWUnLCAnPGluZmlsZS5tYWU+JywgJy1vbWFlJywgJzxvdXRmaWxlLm1hZT4n

> <r_lp_tautomer_probability>
1

> <r_epik_Ionization_Penalty>
  0.0070

> <r_epik_Ionization_Penalty_Charging>
  0.0070

> <r_epik_Ionization_Penalty_Neutral>
  0.0000

> <r_epik_State_Penalty>
 -0.0000

> <r_epik_Charging_Adjusted_Penalty>
0.00700018974734806

> <i_epik_Tot_Q>
0

> <i_epik_Tot_abs_Q>
0

> <s_lp_Force_Field>
OPLS3e

> <r_lp_Energy>
33.285077

> <b_lp_Chiralities_Consistent>
1

> <s_lp_Variant>
sdf/inactives_sanitized.sdf:298-1

$$$$
sdf/inactives_sanitized.sdf:299
                    3D
 Schrodinger Suite 2020-1.
 43 43  0  0  1  0            999 V2000
   -1.3428   -0.5662   -3.2142 O   0  0  0  0  0  0
   -1.2452    0.1325   -2.0524 C   0  0  0  0  0  0
   -0.1037   -0.2838   -1.3793 N   0  0  0  0  0  0
   -2.0543    0.9768   -1.6633 O   0  0  0  0  0  0
    0.1752    0.1498    0.0001 C   0  0  2  0  0  0
    1.6979    0.0610    0.2397 C   0  0  0  0  0  0
    2.2622    1.1165    0.8503 N   0  0  0  0  0  0
    2.3211   -0.9528   -0.0832 O   0  0  0  0  0  0
    3.6893    1.2294    1.1351 C   0  0  0  0  0  0
    4.5132    1.3108   -0.0843 C   0  0  0  0  0  0
    5.1601    1.3752   -1.0415 N   0  0  0  0  0  0
   -2.4727   -0.5380   -4.1068 C   0  0  0  0  0  0
   -2.6783    0.8705   -4.7171 C   0  0  0  0  0  0
   -3.7600   -1.0304   -3.3968 C   0  0  0  0  0  0
   -2.1009   -1.5306   -5.2270 C   0  0  0  0  0  0
   -0.5181   -0.7675    1.0547 C   0  0  0  0  0  0
   -2.0379   -0.6429    1.0557 C   0  0  0  0  0  0
   -2.6482    0.5447    1.4751 C   0  0  0  0  0  0
   -4.0370    0.6724    1.4383 C   0  0  0  0  0  0
   -4.8233   -0.3850    0.9809 C   0  0  0  0  0  0
   -4.2213   -1.5735    0.5669 C   0  0  0  0  0  0
   -2.8331   -1.7057    0.6126 C   0  0  0  0  0  0
   -5.2913   -3.0102   -0.0752 Br  0  0  0  0  0  0
    0.5076   -0.9647   -1.8064 H   0  0  0  0  0  0
   -0.1378    1.1867    0.1506 H   0  0  0  0  0  0
    1.6897    1.9183    1.0716 H   0  0  0  0  0  0
    3.8631    2.1340    1.7181 H   0  0  0  0  0  0
    4.0327    0.3879    1.7392 H   0  0  0  0  0  0
   -3.4363    0.8568   -5.5013 H   0  0  0  0  0  0
   -1.7558    1.2468   -5.1608 H   0  0  0  0  0  0
   -3.0000    1.6009   -3.9749 H   0  0  0  0  0  0
   -4.0932   -0.3422   -2.6198 H   0  0  0  0  0  0
   -3.6031   -1.9985   -2.9191 H   0  0  0  0  0  0
   -4.5850   -1.1425   -4.1014 H   0  0  0  0  0  0
   -2.8892   -1.6033   -5.9773 H   0  0  0  0  0  0
   -1.9314   -2.5337   -4.8323 H   0  0  0  0  0  0
   -1.1864   -1.2301   -5.7405 H   0  0  0  0  0  0
   -0.2379   -1.8129    0.9054 H   0  0  0  0  0  0
   -0.1824   -0.5289    2.0661 H   0  0  0  0  0  0
   -2.0471    1.3741    1.8180 H   0  0  0  0  0  0
   -4.5028    1.5934    1.7562 H   0  0  0  0  0  0
   -5.8977   -0.2803    0.9451 H   0  0  0  0  0  0
   -2.3757   -2.6259    0.2796 H   0  0  0  0  0  0
  1 12  1  0  0  0
  1  2  1  0  0  0
  2  4  2  0  0  0
  2  3  1  0  0  0
  3  5  1  0  0  0
  3 24  1  0  0  0
  5 16  1  0  0  0
  5  6  1  0  0  0
  5 25  1  0  0  0
  6  7  1  0  0  0
  6  8  2  0  0  0
  7  9  1  0  0  0
  7 26  1  0  0  0
  9 10  1  0  0  0
  9 27  1  0  0  0
  9 28  1  0  0  0
 10 11  3  0  0  0
 12 13  1  0  0  0
 12 14  1  0  0  0
 12 15  1  0  0  0
 13 29  1  0  0  0
 13 30  1  0  0  0
 13 31  1  0  0  0
 14 32  1  0  0  0
 14 33  1  0  0  0
 14 34  1  0  0  0
 15 35  1  0  0  0
 15 36  1  0  0  0
 15 37  1  0  0  0
 16 17  1  0  0  0
 16 38  1  0  0  0
 16 39  1  0  0  0
 17 18  2  0  0  0
 17 22  1  0  0  0
 18 19  1  0  0  0
 18 40  1  0  0  0
 19 20  2  0  0  0
 19 41  1  0  0  0
 20 21  1  0  0  0
 20 42  1  0  0  0
 21 22  2  0  0  0
 21 23  1  0  0  0
 22 43  1  0  0  0
M  END
> <chembl_id>
CHEMBL371499

> <chembl_pref_name>
None

> <i_m_ct_stereo_status>
1

> <s_m_source_file>
sdf/inactives_sanitized.sdf

> <i_m_source_file_index>
299

> <i_lp_mmshare_version>
49012

> <i_f3d_flags>
0

> <s_epik_input>
TiNDW0NIMl1bTkhdQyg9TylbQ0BASF0oW05IXUMoPU8pT0MoW0NIM10pKFtDSDNdKVtDSDNdKVtDSDJdYzFbY0hdW2NIXVtjSF1jKEJyKVtjSF0x

> <s_epik_cmdline>
J2VwaWtfcHl0aG9uJywgJy1waHQnLCAnMC41JywgJy1waCcsICc3LjUnLCAnLW50JywgJy1tYScsICcyMDAnLCAnLWltYWUnLCAnPGluZmlsZS5tYWU+JywgJy1vbWFlJywgJzxvdXRmaWxlLm1hZT4n

> <r_lp_tautomer_probability>
1

> <r_epik_Ionization_Penalty>
  0.0000

> <r_epik_Ionization_Penalty_Charging>
  0.0000

> <r_epik_Ionization_Penalty_Neutral>
  0.0000

> <r_epik_State_Penalty>
 -0.0000

> <r_epik_Charging_Adjusted_Penalty>
0

> <i_epik_Tot_Q>
0

> <i_epik_Tot_abs_Q>
0

> <s_epik_Chemistry_Notes>
This compound has an ester and may undergo hydrolysis at high or low pH.

> <s_lp_Force_Field>
OPLS3e

> <r_lp_Energy>
13.05903

> <b_lp_Chiralities_Consistent>
1

> <s_lp_Variant>
sdf/inactives_sanitized.sdf:299-1

$$$$
sdf/inactives_sanitized.sdf:300
                    3D
 Schrodinger Suite 2020-1.
 49 50  0  0  1  0            999 V2000
    2.1761   -2.5438    1.0169 O   0  0  0  0  0  0
    2.5635   -1.7741   -0.1698 S   0  0  0  0  0  0
    2.3423   -2.3334   -1.5079 O   0  0  0  0  0  0
    0.1422   -0.2039   -0.0838 C   0  0  2  0  0  0
   -0.5131    1.1910    0.0053 C   0  0  0  0  0  0
   -1.2694    1.4294    1.0894 N   0  0  0  0  0  0
   -0.3086    2.0193   -0.8834 O   0  0  0  0  0  0
   -2.0179    2.6635    1.3038 C   0  0  0  0  0  0
   -3.1000    2.8545    0.3213 C   0  0  0  0  0  0
   -3.9497    3.0046   -0.4497 N   0  0  0  0  0  0
    1.6846   -0.0998   -0.0868 C   0  0  0  0  0  0
   -0.3565   -0.9536   -1.2403 N   0  0  0  0  0  0
   -1.6060   -1.4304   -1.4009 C   0  0  0  0  0  0
   -1.8187   -2.1320   -2.6449 C   0  0  0  0  0  0
    4.3963   -1.3180   -0.0078 C   0  0  0  0  0  0
    5.2947   -2.5586    0.2027 C   0  0  0  0  0  0
   -2.5042   -1.2930   -0.5674 O   0  0  0  0  0  0
   -3.4052   -2.7233   -3.0555 S   0  0  0  0  0  0
   -2.8326   -3.3977   -4.5565 C   0  0  0  0  0  0
   -1.4673   -3.1645   -4.7064 C   0  0  0  0  0  0
   -0.8965   -2.4646   -3.6395 C   0  0  0  0  0  0
   -3.7412   -4.0850   -5.4642 C   0  0  0  0  0  0
   -4.9866   -4.6491   -5.1857 C   0  0  0  0  0  0
   -5.6007   -5.2289   -6.3003 C   0  0  0  0  0  0
   -4.8339   -5.1162   -7.4482 C   0  0  0  0  0  0
   -3.3438   -4.2839   -7.1501 S   0  0  0  0  0  0
    6.7229   -2.1381    0.5921 C   0  0  0  0  0  0
    5.3119   -3.5082   -1.0102 C   0  0  0  0  0  0
   -0.1348   -0.7854    0.7991 H   0  0  0  0  0  0
   -1.4108    0.6885    1.7610 H   0  0  0  0  0  0
   -2.4674    2.6367    2.2963 H   0  0  0  0  0  0
   -1.3551    3.5301    1.2753 H   0  0  0  0  0  0
    2.0440    0.4982   -0.9256 H   0  0  0  0  0  0
    2.0354    0.3995    0.8171 H   0  0  0  0  0  0
    0.3172   -1.1122   -1.9752 H   0  0  0  0  0  0
    4.6795   -0.7545   -0.8971 H   0  0  0  0  0  0
    4.4714   -0.6388    0.8418 H   0  0  0  0  0  0
    4.8892   -3.1218    1.0448 H   0  0  0  0  0  0
   -0.8976   -3.4949   -5.5624 H   0  0  0  0  0  0
    0.1535   -2.2128   -3.6007 H   0  0  0  0  0  0
   -5.4373   -4.6427   -4.2040 H   0  0  0  0  0  0
   -6.5664   -5.7116   -6.2691 H   0  0  0  0  0  0
   -5.0707   -5.4752   -8.4388 H   0  0  0  0  0  0
    7.2023   -1.5669   -0.2042 H   0  0  0  0  0  0
    7.3486   -3.0071    0.7992 H   0  0  0  0  0  0
    6.7234   -1.5194    1.4902 H   0  0  0  0  0  0
    5.6313   -2.9927   -1.9167 H   0  0  0  0  0  0
    4.3305   -3.9414   -1.1995 H   0  0  0  0  0  0
    5.9947   -4.3430   -0.8475 H   0  0  0  0  0  0
  1  2  2  0  0  0
  2 15  1  0  0  0
  2  3  2  0  0  0
  2 11  1  0  0  0
  4  5  1  0  0  0
  4 11  1  0  0  0
  4 12  1  0  0  0
  4 29  1  0  0  0
  5  6  1  0  0  0
  5  7  2  0  0  0
  6  8  1  0  0  0
  6 30  1  0  0  0
  8  9  1  0  0  0
  8 31  1  0  0  0
  8 32  1  0  0  0
  9 10  3  0  0  0
 11 33  1  0  0  0
 11 34  1  0  0  0
 12 13  1  0  0  0
 12 35  1  0  0  0
 13 17  2  0  0  0
 13 14  1  0  0  0
 14 18  1  0  0  0
 14 21  2  0  0  0
 15 16  1  0  0  0
 15 36  1  0  0  0
 15 37  1  0  0  0
 16 27  1  0  0  0
 16 28  1  0  0  0
 16 38  1  0  0  0
 18 19  1  0  0  0
 19 20  2  0  0  0
 19 22  1  0  0  0
 20 21  1  0  0  0
 20 39  1  0  0  0
 21 40  1  0  0  0
 22 23  2  0  0  0
 22 26  1  0  0  0
 23 24  1  0  0  0
 23 41  1  0  0  0
 24 25  2  0  0  0
 24 42  1  0  0  0
 25 26  1  0  0  0
 25 43  1  0  0  0
 27 44  1  0  0  0
 27 45  1  0  0  0
 27 46  1  0  0  0
 28 47  1  0  0  0
 28 48  1  0  0  0
 28 49  1  0  0  0
M  END
> <chembl_id>
CHEMBL2153169

> <chembl_pref_name>
None

> <s_m_source_file>
sdf/inactives_sanitized.sdf

> <i_m_source_file_index>
300

> <i_lp_mmshare_version>
49012

> <i_m_ct_stereo_status>
1

> <i_f3d_flags>
0

> <s_epik_input>
TiNDW0NIMl1bTkhdQyg9TylbQ0BIXShbQ0gyXVMoPU8pKD1PKVtDSDJdW0NIXShbQ0gzXSlbQ0gzXSlbTkhdQyg9TyljMXNjKFtjSF1bY0hdMSktYzJbY0hdW2NIXVtjSF1zMg==

> <s_epik_cmdline>
J2VwaWtfcHl0aG9uJywgJy1waHQnLCAnMC41JywgJy1waCcsICc3LjUnLCAnLW50JywgJy1tYScsICcyMDAnLCAnLWltYWUnLCAnPGluZmlsZS5tYWU+JywgJy1vbWFlJywgJzxvdXRmaWxlLm1hZT4n

> <r_lp_tautomer_probability>
1

> <r_epik_Ionization_Penalty>
  0.0002

> <r_epik_Ionization_Penalty_Charging>
  0.0000

> <r_epik_Ionization_Penalty_Neutral>
  0.0002

> <r_epik_State_Penalty>
 -0.0000

> <r_epik_Charging_Adjusted_Penalty>
0

> <i_epik_Tot_Q>
0

> <i_epik_Tot_abs_Q>
0

> <s_lp_Force_Field>
OPLS3e

> <r_lp_Energy>
0.935261

> <b_lp_Chiralities_Consistent>
1

> <s_lp_Variant>
sdf/inactives_sanitized.sdf:300-1

$$$$
sdf/inactives_sanitized.sdf:301
                    3D
 Schrodinger Suite 2020-1.
 48 49  0  0  1  0            999 V2000
    2.0549   -2.6412    0.9368 O   0  0  0  0  0  0
    2.4624   -1.8387   -0.2212 S   0  0  0  0  0  0
    2.1529   -2.3035   -1.5778 O   0  0  0  0  0  0
    0.1797   -0.0932    0.0478 C   0  0  2  0  0  0
   -0.3540    1.3380    0.2700 C   0  0  0  0  0  0
   -0.9995    1.5629    1.4261 N   0  0  0  0  0  0
   -0.1538    2.2039   -0.5833 O   0  0  0  0  0  0
   -1.6300    2.8326    1.7717 C   0  0  0  0  0  0
   -2.7829    3.1496    0.9097 C   0  0  0  0  0  0
   -3.6883    3.3981    0.2331 N   0  0  0  0  0  0
    1.7238   -0.1086   -0.0158 C   0  0  0  0  0  0
   -0.4214   -0.7098   -1.1383 N   0  0  0  0  0  0
   -1.7126   -1.0675   -1.2807 C   0  0  0  0  0  0
   -2.0343   -1.6441   -2.5672 C   0  0  0  0  0  0
    4.3297   -1.5339   -0.1024 C   0  0  0  0  0  0
    5.1343   -2.8495    0.0037 C   0  0  0  0  0  0
   -2.5633   -0.9204   -0.4001 O   0  0  0  0  0  0
   -3.7099   -1.9967   -2.9562 S   0  0  0  0  0  0
   -1.1682   -2.0156   -3.5886 C   0  0  0  0  0  0
   -1.8331   -2.5690   -4.7176 C   0  0  0  0  0  0
   -3.2452   -2.6258   -4.5284 C   0  0  0  0  0  0
   -4.0979   -3.1368   -5.5179 C   0  0  0  0  0  0
   -3.5314   -3.5935   -6.7051 C   0  0  0  0  0  0
   -2.1561   -3.5474   -6.9080 C   0  0  0  0  0  0
   -1.3006   -3.0424   -5.9298 C   0  0  0  0  0  0
    6.5925   -2.5676    0.4072 C   0  0  0  0  0  0
    5.0712   -3.7014   -1.2782 C   0  0  0  0  0  0
   -0.1077   -0.7169    0.8977 H   0  0  0  0  0  0
   -1.1443    0.7937    2.0642 H   0  0  0  0  0  0
   -1.9829    2.7842    2.8019 H   0  0  0  0  0  0
   -0.9113    3.6523    1.7180 H   0  0  0  0  0  0
    2.1484    0.3100    0.8975 H   0  0  0  0  0  0
    2.0966    0.5059   -0.8366 H   0  0  0  0  0  0
    0.2093   -0.8669   -1.9106 H   0  0  0  0  0  0
    4.6275   -0.9399   -0.9670 H   0  0  0  0  0  0
    4.4845   -0.9149    0.7817 H   0  0  0  0  0  0
    4.6942   -3.4431    0.8067 H   0  0  0  0  0  0
   -0.0951   -1.8987   -3.5445 H   0  0  0  0  0  0
   -5.1668   -3.1768   -5.3676 H   0  0  0  0  0  0
   -4.1694   -3.9906   -7.4809 H   0  0  0  0  0  0
   -1.7448   -3.9094   -7.8390 H   0  0  0  0  0  0
   -0.2359   -3.0169   -6.1089 H   0  0  0  0  0  0
    7.1087   -1.9757   -0.3499 H   0  0  0  0  0  0
    7.1527   -3.4938    0.5419 H   0  0  0  0  0  0
    6.6449   -2.0199    1.3489 H   0  0  0  0  0  0
    5.4263   -3.1442   -2.1460 H   0  0  0  0  0  0
    4.0577   -4.0402   -1.4900 H   0  0  0  0  0  0
    5.6875   -4.5965   -1.1871 H   0  0  0  0  0  0
  1  2  2  0  0  0
  2 11  1  0  0  0
  2 15  1  0  0  0
  2  3  2  0  0  0
  4  5  1  0  0  0
  4 11  1  0  0  0
  4 12  1  0  0  0
  4 28  1  0  0  0
  5  6  1  0  0  0
  5  7  2  0  0  0
  6  8  1  0  0  0
  6 29  1  0  0  0
  8  9  1  0  0  0
  8 30  1  0  0  0
  8 31  1  0  0  0
  9 10  3  0  0  0
 11 32  1  0  0  0
 11 33  1  0  0  0
 12 13  1  0  0  0
 12 34  1  0  0  0
 13 17  2  0  0  0
 13 14  1  0  0  0
 14 18  1  0  0  0
 14 19  2  0  0  0
 15 16  1  0  0  0
 15 35  1  0  0  0
 15 36  1  0  0  0
 16 26  1  0  0  0
 16 27  1  0  0  0
 16 37  1  0  0  0
 18 21  1  0  0  0
 19 20  1  0  0  0
 19 38  1  0  0  0
 20 21  2  0  0  0
 20 25  1  0  0  0
 21 22  1  0  0  0
 22 23  2  0  0  0
 22 39  1  0  0  0
 23 24  1  0  0  0
 23 40  1  0  0  0
 24 25  2  0  0  0
 24 41  1  0  0  0
 25 42  1  0  0  0
 26 43  1  0  0  0
 26 44  1  0  0  0
 26 45  1  0  0  0
 27 46  1  0  0  0
 27 47  1  0  0  0
 27 48  1  0  0  0
M  END
> <chembl_id>
CHEMBL2153170

> <chembl_pref_name>
None

> <s_m_source_file>
sdf/inactives_sanitized.sdf

> <i_m_source_file_index>
301

> <i_lp_mmshare_version>
49012

> <i_m_ct_stereo_status>
1

> <i_f3d_flags>
0

> <s_epik_input>
TiNDW0NIMl1bTkhdQyg9TylbQ0BIXShbQ0gyXVMoPU8pKD1PKVtDSDJdW0NIXShbQ0gzXSlbQ0gzXSlbTkhdQyg9TyljKFtjSF0xKXNjKGMxMilbY0hdW2NIXVtjSF1bY0hdMg==

> <s_epik_cmdline>
J2VwaWtfcHl0aG9uJywgJy1waHQnLCAnMC41JywgJy1waCcsICc3LjUnLCAnLW50JywgJy1tYScsICcyMDAnLCAnLWltYWUnLCAnPGluZmlsZS5tYWU+JywgJy1vbWFlJywgJzxvdXRmaWxlLm1hZT4n

> <r_lp_tautomer_probability>
1

> <r_epik_Ionization_Penalty>
  0.0002

> <r_epik_Ionization_Penalty_Charging>
  0.0000

> <r_epik_Ionization_Penalty_Neutral>
  0.0002

> <r_epik_State_Penalty>
 -0.0000

> <r_epik_Charging_Adjusted_Penalty>
0

> <i_epik_Tot_Q>
0

> <i_epik_Tot_abs_Q>
0

> <s_lp_Force_Field>
OPLS3e

> <r_lp_Energy>
7.774279

> <b_lp_Chiralities_Consistent>
1

> <s_lp_Variant>
sdf/inactives_sanitized.sdf:301-1

$$$$
sdf/inactives_sanitized.sdf:302
                    3D
 Schrodinger Suite 2020-1.
 43 43  0  0  1  0            999 V2000
   -1.6596   -0.7421   -3.1748 O   0  0  0  0  0  0
   -1.1826    0.1051   -2.2239 C   0  0  0  0  0  0
   -0.7237   -0.6501   -1.1520 N   0  0  0  0  0  0
   -1.1635    1.3348   -2.3092 O   0  0  0  0  0  0
   -0.1519   -0.0117    0.0440 C   0  0  2  0  0  0
    1.3616    0.2419   -0.1130 C   0  0  0  0  0  0
    1.7826    1.5008    0.0922 N   0  0  0  0  0  0
    2.1121   -0.6965   -0.3836 O   0  0  0  0  0  0
    3.1671    1.9325   -0.0697 C   0  0  0  0  0  0
    3.6311    1.8524   -1.4664 C   0  0  0  0  0  0
    3.9951    1.7899   -2.5630 N   0  0  0  0  0  0
   -2.2216   -0.3461   -4.4398 C   0  0  0  0  0  0
   -1.1751    0.3871   -5.3154 C   0  0  0  0  0  0
   -3.4910    0.5210   -4.2491 C   0  0  0  0  0  0
   -2.6118   -1.6758   -5.1174 C   0  0  0  0  0  0
   -0.4884   -0.8486    1.3032 C   0  0  0  0  0  0
   -1.9719   -0.9829    1.6102 C   0  0  0  0  0  0
   -2.6492    0.0490    2.2939 C   0  0  0  0  0  0
   -4.0225   -0.0287    2.4851 C   0  0  0  0  0  0
   -4.7397   -1.1059    1.9799 C   0  0  0  0  0  0
   -4.0927   -2.1095    1.2697 C   0  0  0  0  0  0
   -2.7199   -2.0503    1.0683 C   0  0  0  0  0  0
   -0.7544   -1.6579   -1.2001 H   0  0  0  0  0  0
   -0.6462    0.9507    0.2071 H   0  0  0  0  0  0
    1.1015    2.2197    0.2898 H   0  0  0  0  0  0
    3.2543    2.9697    0.2539 H   0  0  0  0  0  0
    3.8353    1.3432    0.5606 H   0  0  0  0  0  0
   -1.5590    0.5756   -6.3186 H   0  0  0  0  0  0
   -0.2635   -0.2030   -5.4187 H   0  0  0  0  0  0
   -0.8875    1.3512   -4.8960 H   0  0  0  0  0  0
   -3.2636    1.4988   -3.8248 H   0  0  0  0  0  0
   -4.2031    0.0369   -3.5795 H   0  0  0  0  0  0
   -3.9998    0.6943   -5.1981 H   0  0  0  0  0  0
   -3.0476   -1.5124   -6.1038 H   0  0  0  0  0  0
   -3.3421   -2.2276   -4.5236 H   0  0  0  0  0  0
   -1.7466   -2.3277   -5.2465 H   0  0  0  0  0  0
   -0.0693   -1.8523    1.2083 H   0  0  0  0  0  0
   -0.0070   -0.4098    2.1793 H   0  0  0  0  0  0
   -2.1027    0.9010    2.6713 H   0  0  0  0  0  0
   -4.5364    0.7559    3.0208 H   0  0  0  0  0  0
   -5.8082   -1.1569    2.1291 H   0  0  0  0  0  0
   -4.6608   -2.9343    0.8653 H   0  0  0  0  0  0
   -2.2284   -2.8240    0.4966 H   0  0  0  0  0  0
  1 12  1  0  0  0
  1  2  1  0  0  0
  2  4  2  0  0  0
  2  3  1  0  0  0
  3  5  1  0  0  0
  3 23  1  0  0  0
  5  6  1  0  0  0
  5 16  1  0  0  0
  5 24  1  0  0  0
  6  7  1  0  0  0
  6  8  2  0  0  0
  7  9  1  0  0  0
  7 25  1  0  0  0
  9 10  1  0  0  0
  9 26  1  0  0  0
  9 27  1  0  0  0
 10 11  3  0  0  0
 12 13  1  0  0  0
 12 14  1  0  0  0
 12 15  1  0  0  0
 13 28  1  0  0  0
 13 29  1  0  0  0
 13 30  1  0  0  0
 14 31  1  0  0  0
 14 32  1  0  0  0
 14 33  1  0  0  0
 15 34  1  0  0  0
 15 35  1  0  0  0
 15 36  1  0  0  0
 16 17  1  0  0  0
 16 37  1  0  0  0
 16 38  1  0  0  0
 17 18  2  0  0  0
 17 22  1  0  0  0
 18 19  1  0  0  0
 18 39  1  0  0  0
 19 20  2  0  0  0
 19 40  1  0  0  0
 20 21  1  0  0  0
 20 41  1  0  0  0
 21 22  2  0  0  0
 21 42  1  0  0  0
 22 43  1  0  0  0
M  END
> <chembl_id>
CHEMBL200374

> <chembl_pref_name>
None

> <i_m_ct_stereo_status>
1

> <s_m_source_file>
sdf/inactives_sanitized.sdf

> <i_m_source_file_index>
302

> <i_lp_mmshare_version>
49012

> <i_f3d_flags>
0

> <s_epik_input>
TiNDW0NIMl1bTkhdQyg9TylbQ0BASF0oW05IXUMoPU8pT0MoW0NIM10pKFtDSDNdKVtDSDNdKVtDSDJdYzFbY0hdW2NIXVtjSF1bY0hdW2NIXTE=

> <s_epik_cmdline>
J2VwaWtfcHl0aG9uJywgJy1waHQnLCAnMC41JywgJy1waCcsICc3LjUnLCAnLW50JywgJy1tYScsICcyMDAnLCAnLWltYWUnLCAnPGluZmlsZS5tYWU+JywgJy1vbWFlJywgJzxvdXRmaWxlLm1hZT4n

> <r_lp_tautomer_probability>
1

> <r_epik_Ionization_Penalty>
  0.0000

> <r_epik_Ionization_Penalty_Charging>
  0.0000

> <r_epik_Ionization_Penalty_Neutral>
  0.0000

> <r_epik_State_Penalty>
 -0.0000

> <r_epik_Charging_Adjusted_Penalty>
0

> <i_epik_Tot_Q>
0

> <i_epik_Tot_abs_Q>
0

> <s_epik_Chemistry_Notes>
This compound has an ester and may undergo hydrolysis at high or low pH.

> <s_lp_Force_Field>
OPLS3e

> <r_lp_Energy>
13.108844

> <b_lp_Chiralities_Consistent>
1

> <s_lp_Variant>
sdf/inactives_sanitized.sdf:302-1

$$$$
sdf/inactives_sanitized.sdf:303
                    3D
 Schrodinger Suite 2020-1.
 28 29  0  0  1  0            999 V2000
   -2.1933   -1.1923    0.0045 C   0  0  0  0  0  0
   -2.8520    0.0336    0.0101 C   0  0  0  0  0  0
   -2.1166    1.2165    0.0059 C   0  0  0  0  0  0
   -0.7176    1.1875   -0.0031 C   0  0  0  0  0  0
   -0.0460   -0.0478   -0.0096 C   0  0  0  0  0  0
   -0.8004   -1.2349   -0.0058 C   0  0  0  0  0  0
    0.0361    2.4651   -0.0058 C   0  0  0  0  0  0
    0.3982    3.0869   -1.2093 C   0  0  0  0  0  0
    1.1180    4.2845   -1.1963 C   0  0  0  0  0  0
    1.4807    4.8678    0.0185 C   0  0  0  0  0  0
    1.1234    4.2557    1.2189 C   0  0  0  0  0  0
    0.4052    3.0605    1.2055 C   0  0  0  0  0  0
    0.0544    2.5287   -2.3947 F   0  0  0  0  0  0
    1.4652    4.8798   -2.3611 F   0  0  0  0  0  0
    2.1792    6.0258    0.0359 F   0  0  0  0  0  0
    1.3375   -0.0211   -0.0186 O   0  0  0  0  0  0
    2.0552   -1.2489   -0.0333 C   0  0  0  0  0  0
    3.5494   -0.9496   -0.0368 C   0  0  0  0  0  0
    4.3189   -1.5809   -0.7585 O   0  0  0  0  0  0
   -2.7617   -2.1108    0.0076 H   0  0  0  0  0  0
   -3.9316    0.0676    0.0171 H   0  0  0  0  0  0
   -2.6385    2.1628    0.0094 H   0  0  0  0  0  0
   -0.3226   -2.2028   -0.0104 H   0  0  0  0  0  0
    1.4041    4.7060    2.1597 H   0  0  0  0  0  0
    0.1373    2.5931    2.1422 H   0  0  0  0  0  0
    1.8226   -1.8294    0.8600 H   0  0  0  0  0  0
    1.7982   -1.8392   -0.9141 H   0  0  0  0  0  0
    3.8747   -0.1667    0.6486 H   0  0  0  0  0  0
  1  2  2  0  0  0
  1  6  1  0  0  0
  1 20  1  0  0  0
  2  3  1  0  0  0
  2 21  1  0  0  0
  3  4  2  0  0  0
  3 22  1  0  0  0
  4  5  1  0  0  0
  4  7  1  0  0  0
  5  6  2  0  0  0
  5 16  1  0  0  0
  6 23  1  0  0  0
  7  8  2  0  0  0
  7 12  1  0  0  0
  8  9  1  0  0  0
  8 13  1  0  0  0
  9 10  2  0  0  0
  9 14  1  0  0  0
 10 11  1  0  0  0
 10 15  1  0  0  0
 11 12  2  0  0  0
 11 24  1  0  0  0
 12 25  1  0  0  0
 16 17  1  0  0  0
 17 18  1  0  0  0
 17 26  1  0  0  0
 17 27  1  0  0  0
 18 19  2  0  0  0
 18 28  1  0  0  0
M  END
> <chembl_id>
CHEMBL387619

> <chembl_pref_name>
None

> <s_m_source_file>
sdf/inactives_sanitized.sdf

> <i_m_source_file_index>
303

> <i_lp_mmshare_version>
49012

> <i_m_ct_stereo_status>
1

> <i_f3d_flags>
0

> <s_epik_input>
Tz1bQ0hdW0NIMl1PYzFbY0hdW2NIXVtjSF1bY0hdYzEtYzJjKEYpYyhGKWMoRilbY0hdW2NIXTI=

> <s_epik_cmdline>
J2VwaWtfcHl0aG9uJywgJy1waHQnLCAnMC41JywgJy1waCcsICc3LjUnLCAnLW50JywgJy1tYScsICcyMDAnLCAnLWltYWUnLCAnPGluZmlsZS5tYWU+JywgJy1vbWFlJywgJzxvdXRmaWxlLm1hZT4n

> <r_lp_tautomer_probability>
0.99990000499975

> <r_epik_Ionization_Penalty>
  0.0139

> <r_epik_Ionization_Penalty_Charging>
  0.0000

> <r_epik_Ionization_Penalty_Neutral>
  0.0139

> <r_epik_State_Penalty>
  0.0109

> <r_epik_Charging_Adjusted_Penalty>
0.0108588939277934

> <i_epik_Tot_Q>
0

> <i_epik_Tot_abs_Q>
0

> <s_lp_Force_Field>
OPLS3e

> <r_lp_Energy>
30.721529

> <b_lp_Chiralities_Consistent>
1

> <s_lp_Variant>
sdf/inactives_sanitized.sdf:303-1

$$$$
sdf/inactives_sanitized.sdf:304
                    3D
 Schrodinger Suite 2020-1.
 49 51  0  0  1  0            999 V2000
   -4.3386    1.0358    1.3266 C   0  0  0  0  0  0
   -2.8543    0.7386    1.4796 C   0  0  0  0  0  0
   -2.3236    0.4776    0.0611 C   0  0  1  0  0  0
   -3.2388    1.3120   -0.7696 N   0  0  2  0  0  0
   -4.5928    1.2566   -0.1654 C   0  0  0  0  0  0
   -0.8437    0.8890   -0.0719 C   0  0  0  0  0  0
    0.0488   -0.1149   -0.1353 N   0  0  0  0  0  0
   -0.5174    2.0759   -0.0087 O   0  0  0  0  0  0
   -3.1161    1.2981   -2.5409 S   0  0  0  0  0  0
   -4.1268    2.6755   -3.0801 C   0  0  0  0  0  0
   -1.7319    1.6101   -2.9153 O   0  0  0  0  0  0
   -3.7507    0.0616   -3.0130 O   0  0  0  0  0  0
    1.5126    0.0366   -0.1038 C   0  0  2  0  0  0
    2.0912   -0.6679   -1.3201 C   0  0  0  0  0  0
    2.0876   -0.5605    1.2052 C   0  0  0  0  0  0
    1.5933    0.1027    2.4820 C   0  0  0  0  0  0
    0.4398   -0.3800    3.1380 C   0  0  0  0  0  0
   -0.0678    0.2952    4.2399 C   0  0  0  0  0  0
    0.5404    1.4614    4.6868 C   0  0  0  0  0  0
    1.6533    1.9697    4.0285 C   0  0  0  0  0  0
    2.1749    1.3102    2.9230 C   0  0  0  0  0  0
    1.4324   -1.2337   -2.1953 O   0  0  0  0  0  0
   -5.4453    2.4625   -3.4915 C   0  0  0  0  0  0
   -6.2284    3.5437   -3.8873 C   0  0  0  0  0  0
   -5.6924    4.8300   -3.8643 C   0  0  0  0  0  0
   -3.5956    3.9670   -3.0507 C   0  0  0  0  0  0
   -4.3807    5.0465   -3.4468 C   0  0  0  0  0  0
   -4.6050    1.9265    1.8971 H   0  0  0  0  0  0
   -4.9520    0.2172    1.7058 H   0  0  0  0  0  0
   -2.7024   -0.1355    2.1147 H   0  0  0  0  0  0
   -2.3458    1.5693    1.9755 H   0  0  0  0  0  0
   -2.4322   -0.5793   -0.1928 H   0  0  0  0  0  0
   -5.2163    2.1022   -0.4567 H   0  0  0  0  0  0
   -5.1258    0.4051   -0.5915 H   0  0  0  0  0  0
   -0.2882   -1.0663   -0.1080 H   0  0  0  0  0  0
    1.7939    1.0905   -0.1592 H   0  0  0  0  0  0
    3.1797   -0.6365   -1.3734 H   0  0  0  0  0  0
    1.8527   -1.6249    1.2725 H   0  0  0  0  0  0
    3.1771   -0.4918    1.1980 H   0  0  0  0  0  0
   -0.0539   -1.2730    2.7837 H   0  0  0  0  0  0
   -0.9443   -0.0827    4.7454 H   0  0  0  0  0  0
    0.1381    1.9827    5.5431 H   0  0  0  0  0  0
    2.1091    2.8869    4.3717 H   0  0  0  0  0  0
    3.0260    1.7250    2.4029 H   0  0  0  0  0  0
   -5.8660    1.4678   -3.5047 H   0  0  0  0  0  0
   -7.2475    3.3865   -4.2090 H   0  0  0  0  0  0
   -6.3008    5.6682   -4.1708 H   0  0  0  0  0  0
   -2.5810    4.1354   -2.7198 H   0  0  0  0  0  0
   -3.9749    6.0473   -3.4284 H   0  0  0  0  0  0
  1  5  1  0  0  0
  1  2  1  0  0  0
  1 28  1  0  0  0
  1 29  1  0  0  0
  2  3  1  0  0  0
  2 30  1  0  0  0
  2 31  1  0  0  0
  3  4  1  0  0  0
  3  6  1  0  0  0
  3 32  1  0  0  0
  4  9  1  0  0  0
  4  5  1  0  0  0
  5 33  1  0  0  0
  5 34  1  0  0  0
  6  7  1  0  0  0
  6  8  2  0  0  0
  7 13  1  0  0  0
  7 35  1  0  0  0
  9 10  1  0  0  0
  9 11  2  0  0  0
  9 12  2  0  0  0
 10 23  2  0  0  0
 10 26  1  0  0  0
 13 14  1  0  0  0
 13 15  1  0  0  0
 13 36  1  0  0  0
 14 22  2  0  0  0
 14 37  1  0  0  0
 15 16  1  0  0  0
 15 38  1  0  0  0
 15 39  1  0  0  0
 16 17  2  0  0  0
 16 21  1  0  0  0
 17 18  1  0  0  0
 17 40  1  0  0  0
 18 19  2  0  0  0
 18 41  1  0  0  0
 19 20  1  0  0  0
 19 42  1  0  0  0
 20 21  2  0  0  0
 20 43  1  0  0  0
 21 44  1  0  0  0
 23 24  1  0  0  0
 23 45  1  0  0  0
 24 25  2  0  0  0
 24 46  1  0  0  0
 25 27  1  0  0  0
 25 47  1  0  0  0
 26 27  2  0  0  0
 26 48  1  0  0  0
 27 49  1  0  0  0
M  END
> <chembl_id>
CHEMBL378494

> <chembl_pref_name>
None

> <i_m_ct_stereo_status>
1

> <s_m_source_file>
sdf/inactives_sanitized.sdf

> <i_m_source_file_index>
304

> <i_lp_mmshare_version>
49012

> <i_f3d_flags>
0

> <s_epik_input>
W2NIXTFbY0hdW2NIXVtjSF1bY0hdYzFTKD1PKSg9TylOMltDSDJdW0NIMl1bQ0gyXVtDQEBIXTJDKD1PKVtOSF1bQ0BIXShbQ0hdPU8pW0NIMl1jM1tjSF1bY0hdW2NIXVtjSF1bY0hdMw==

> <s_epik_cmdline>
J2VwaWtfcHl0aG9uJywgJy1waHQnLCAnMC41JywgJy1waCcsICc3LjUnLCAnLW50JywgJy1tYScsICcyMDAnLCAnLWltYWUnLCAnPGluZmlsZS5tYWU+JywgJy1vbWFlJywgJzxvdXRmaWxlLm1hZT4n

> <r_lp_tautomer_probability>
1

> <r_epik_Ionization_Penalty>
  0.0030

> <r_epik_Ionization_Penalty_Charging>
  0.0000

> <r_epik_Ionization_Penalty_Neutral>
  0.0030

> <r_epik_State_Penalty>
 -0.0000

> <r_epik_Charging_Adjusted_Penalty>
0

> <i_epik_Tot_Q>
0

> <i_epik_Tot_abs_Q>
0

> <s_lp_Force_Field>
OPLS3e

> <r_lp_Energy>
33.807523

> <b_lp_Chiralities_Consistent>
1

> <s_lp_Variant>
sdf/inactives_sanitized.sdf:304-1

$$$$
sdf/inactives_sanitized.sdf:305
                    3D
 Schrodinger Suite 2020-1.
 53 54  0  0  1  0            999 V2000
   -1.8902    1.7142   -0.1822 C   0  0  1  0  0  0
   -2.6604    3.6640   -0.3840 N   0  0  0  0  0  0
   -2.1863    2.8942    0.7920 C   0  0  1  0  0  0
   -2.3195    2.6761   -1.3085 C   0  0  0  0  0  0
   -0.4885    1.3042   -0.2680 N   0  0  0  0  0  0
    0.0135    0.1925    0.2956 C   0  0  0  0  0  0
   -3.1847    2.6607    1.7491 O   0  0  0  0  0  0
    2.2913   -0.0575    2.5384 C   0  0  0  0  0  0
    1.5427   -0.0033    0.1572 C   0  0  1  0  0  0
    2.1369   -0.6980    1.3134 N   0  0  0  0  0  0
   -2.8311    1.9383    2.8504 C   0  0  0  0  0  0
   -2.3545    2.6278   -2.5360 O   0  0  0  0  0  0
   -0.6689   -0.6553    0.8748 O   0  0  0  0  0  0
    2.0256    1.1218    2.7865 O   0  0  0  0  0  0
    2.7813   -0.9403    3.4292 O   0  0  0  0  0  0
    1.8689   -0.7968   -1.1376 C   0  0  0  0  0  0
   -1.7150    1.4874    3.1183 O   0  0  0  0  0  0
    3.0270   -0.5575    4.7801 C   0  0  0  0  0  0
    3.5185   -1.7227    5.6364 C   0  0  0  0  0  0
    3.3737   -0.9107   -1.4849 C   0  0  0  0  0  0
   -4.0096    1.7230    3.7913 C   0  0  0  0  0  0
    3.7110   -1.4986    7.0023 C   0  0  0  0  0  0
    3.7806   -2.9904    5.0984 C   0  0  0  0  0  0
    4.0357    0.4673   -1.7014 C   0  0  0  0  0  0
    3.5951   -1.8593   -2.6831 C   0  0  0  0  0  0
    4.2271   -4.0200    5.9228 C   0  0  0  0  0  0
    4.1585   -2.5281    7.8262 C   0  0  0  0  0  0
    4.4143   -3.7847    7.2827 C   0  0  0  0  0  0
   -2.5235    0.8294   -0.0813 H   0  0  0  0  0  0
   -2.6530    4.6617   -0.5391 H   0  0  0  0  0  0
   -1.3307    3.3791    1.2746 H   0  0  0  0  0  0
    0.1475    1.9585   -0.7008 H   0  0  0  0  0  0
    2.0026    0.9840    0.0720 H   0  0  0  0  0  0
    2.3046   -1.6912    1.2484 H   0  0  0  0  0  0
    1.4455   -1.8003   -1.0537 H   0  0  0  0  0  0
    1.3611   -0.3384   -1.9890 H   0  0  0  0  0  0
    3.7751    0.2366    4.8050 H   0  0  0  0  0  0
    2.1082   -0.1649    5.2199 H   0  0  0  0  0  0
    3.8734   -1.3769   -0.6346 H   0  0  0  0  0  0
   -4.7887    1.1440    3.2953 H   0  0  0  0  0  0
   -4.4295    2.6807    4.0993 H   0  0  0  0  0  0
   -3.6954    1.1827    4.6846 H   0  0  0  0  0  0
    3.5129   -0.5254    7.4281 H   0  0  0  0  0  0
    3.6425   -3.1900    4.0460 H   0  0  0  0  0  0
    4.7041    0.4835   -2.5622 H   0  0  0  0  0  0
    4.6324    0.7463   -0.8322 H   0  0  0  0  0  0
    3.2984    1.2552   -1.8571 H   0  0  0  0  0  0
    3.9770   -1.3435   -3.5643 H   0  0  0  0  0  0
    2.6736   -2.3560   -2.9884 H   0  0  0  0  0  0
    4.3114   -2.6415   -2.4300 H   0  0  0  0  0  0
    4.4275   -4.9973    5.5089 H   0  0  0  0  0  0
    4.3064   -2.3530    8.8817 H   0  0  0  0  0  0
    4.7609   -4.5839    7.9212 H   0  0  0  0  0  0
  1  3  1  0  0  0
  1  4  1  0  0  0
  1  5  1  0  0  0
  1 29  1  0  0  0
  2  4  1  0  0  0
  2  3  1  0  0  0
  2 30  1  0  0  0
  3  7  1  0  0  0
  3 31  1  0  0  0
  4 12  2  0  0  0
  5  6  1  0  0  0
  5 32  1  0  0  0
  6  9  1  0  0  0
  6 13  2  0  0  0
  7 11  1  0  0  0
  8 10  1  0  0  0
  8 14  2  0  0  0
  8 15  1  0  0  0
  9 10  1  0  0  0
  9 16  1  0  0  0
  9 33  1  0  0  0
 10 34  1  0  0  0
 11 17  2  0  0  0
 11 21  1  0  0  0
 15 18  1  0  0  0
 16 20  1  0  0  0
 16 35  1  0  0  0
 16 36  1  0  0  0
 18 19  1  0  0  0
 18 37  1  0  0  0
 18 38  1  0  0  0
 19 22  2  0  0  0
 19 23  1  0  0  0
 20 24  1  0  0  0
 20 25  1  0  0  0
 20 39  1  0  0  0
 21 40  1  0  0  0
 21 41  1  0  0  0
 21 42  1  0  0  0
 22 27  1  0  0  0
 22 43  1  0  0  0
 23 26  2  0  0  0
 23 44  1  0  0  0
 24 45  1  0  0  0
 24 46  1  0  0  0
 24 47  1  0  0  0
 25 48  1  0  0  0
 25 49  1  0  0  0
 25 50  1  0  0  0
 26 28  1  0  0  0
 26 51  1  0  0  0
 27 28  2  0  0  0
 27 52  1  0  0  0
 28 53  1  0  0  0
M  END
> <chembl_id>
CHEMBL292513

> <chembl_pref_name>
None

> <i_m_ct_stereo_status>
1

> <s_m_source_file>
sdf/inactives_sanitized.sdf

> <i_m_source_file_index>
305

> <i_lp_mmshare_version>
49012

> <i_f3d_flags>
0

> <s_epik_input>
Tz1DMVtOSF1bQ0BASF0oT0MoPU8pW0NIM10pW0NAQEhdMVtOSF1DKD1PKVtDQEhdKFtDSDJdW0NIXShbQ0gzXSlbQ0gzXSlbTkhdQyg9TylPW0NIMl1jMltjSF1bY0hdW2NIXVtjSF1bY0hdMg==

> <s_epik_cmdline>
J2VwaWtfcHl0aG9uJywgJy1waHQnLCAnMC41JywgJy1waCcsICc3LjUnLCAnLW50JywgJy1tYScsICcyMDAnLCAnLWltYWUnLCAnPGluZmlsZS5tYWU+JywgJy1vbWFlJywgJzxvdXRmaWxlLm1hZT4n

> <r_lp_tautomer_probability>
1

> <r_epik_Ionization_Penalty>
  0.0000

> <r_epik_Ionization_Penalty_Charging>
  0.0000

> <r_epik_Ionization_Penalty_Neutral>
  0.0000

> <r_epik_State_Penalty>
 -0.0000

> <r_epik_Charging_Adjusted_Penalty>
0

> <i_epik_Tot_Q>
0

> <i_epik_Tot_abs_Q>
0

> <s_epik_Chemistry_Notes>
This compound has an ester and may undergo hydrolysis at high or low pH. This compound contains an acetal/aminal-like group ( X-CH(R)-Y where X, Y are N, S, or O) that may be acid/base labile, releasing an aldehyde.

> <s_lp_Force_Field>
OPLS3e

> <r_lp_Energy>
28.899541

> <b_lp_Chiralities_Consistent>
1

> <s_lp_Variant>
sdf/inactives_sanitized.sdf:305-1

$$$$
sdf/inactives_sanitized.sdf:306
                    3D
 Schrodinger Suite 2020-1.
 48 50  0  0  1  0            999 V2000
    5.3338   -1.1519   -4.0798 C   0  0  0  0  0  0
   -2.1101    0.8202   -0.2298 O   0  0  0  0  0  0
   -0.8153    1.1777   -0.3310 C   0  0  0  0  0  0
   -0.0217    0.0786   -0.0238 N   0  0  0  0  0  0
   -0.4176    2.3026   -0.6462 O   0  0  0  0  0  0
   -3.1460    1.7581   -0.4942 C   0  0  0  0  0  0
   -4.4898    1.1335   -0.1691 C   0  0  0  0  0  0
   -5.2028    0.4583   -1.1625 C   0  0  0  0  0  0
   -6.4368   -0.1132   -0.8623 C   0  0  0  0  0  0
   -6.9512   -0.0067    0.4285 C   0  0  0  0  0  0
   -6.2429    0.6654    1.4228 C   0  0  0  0  0  0
   -5.0089    1.2370    1.1237 C   0  0  0  0  0  0
    1.4459    0.1726   -0.0369 C   0  0  2  0  0  0
    2.0367   -0.0859   -1.4413 C   0  0  0  0  0  0
    2.0178   -0.7680    1.0551 C   0  0  0  0  0  0
    3.5241   -0.7021    1.2633 C   0  0  0  0  0  0
    4.3836   -1.5581    0.5409 C   0  0  0  0  0  0
    5.7603   -1.4172    0.6528 C   0  0  0  0  0  0
    6.2984   -0.4197    1.4561 C   0  0  0  0  0  0
    5.4653    0.4534    2.1448 C   0  0  0  0  0  0
    4.0857    0.3306    2.0436 C   0  0  0  0  0  0
    2.9661    0.7893   -1.8616 N   0  0  0  0  0  0
    1.6853   -1.0808   -2.0779 O   0  0  0  0  0  0
    3.7200    0.6624   -3.1049 C   0  0  0  0  0  0
    4.9533   -0.2458   -2.9533 C   0  0  1  0  0  0
    4.7285   -1.6308   -2.9056 O   0  0  0  0  0  0
    4.7269   -1.2021   -4.9843 H   0  0  0  0  0  0
    6.3773   -1.4295   -4.2284 H   0  0  0  0  0  0
   -0.4533   -0.8125    0.1726 H   0  0  0  0  0  0
   -3.0133    2.6628    0.1025 H   0  0  0  0  0  0
   -3.1248    2.0640   -1.5417 H   0  0  0  0  0  0
   -4.8031    0.3747   -2.1629 H   0  0  0  0  0  0
   -6.9925   -0.6365   -1.6265 H   0  0  0  0  0  0
   -7.9084   -0.4497    0.6609 H   0  0  0  0  0  0
   -6.6489    0.7430    2.4207 H   0  0  0  0  0  0
   -4.4586    1.7574    1.8943 H   0  0  0  0  0  0
    1.7411    1.1763    0.2833 H   0  0  0  0  0  0
    1.5418   -0.5423    2.0113 H   0  0  0  0  0  0
    1.7443   -1.8023    0.8371 H   0  0  0  0  0  0
    3.9744   -2.3205   -0.1063 H   0  0  0  0  0  0
    6.4145   -2.0791    0.1044 H   0  0  0  0  0  0
    7.3703   -0.3141    1.5357 H   0  0  0  0  0  0
    5.8923    1.2372    2.7529 H   0  0  0  0  0  0
    3.4452    1.0282    2.5636 H   0  0  0  0  0  0
    3.1929    1.5788   -1.2743 H   0  0  0  0  0  0
    3.0695    0.3124   -3.9100 H   0  0  0  0  0  0
    4.0471    1.6594   -3.4005 H   0  0  0  0  0  0
    5.7192    0.1285   -2.2730 H   0  0  0  0  0  0
  1 25  1  0  0  0
  1 26  1  0  0  0
  1 27  1  0  0  0
  1 28  1  0  0  0
  2  3  1  0  0  0
  2  6  1  0  0  0
  3  5  2  0  0  0
  3  4  1  0  0  0
  4 13  1  0  0  0
  4 29  1  0  0  0
  6  7  1  0  0  0
  6 30  1  0  0  0
  6 31  1  0  0  0
  7 12  1  0  0  0
  7  8  2  0  0  0
  8  9  1  0  0  0
  8 32  1  0  0  0
  9 10  2  0  0  0
  9 33  1  0  0  0
 10 11  1  0  0  0
 10 34  1  0  0  0
 11 12  2  0  0  0
 11 35  1  0  0  0
 12 36  1  0  0  0
 13 14  1  0  0  0
 13 15  1  0  0  0
 13 37  1  0  0  0
 14 22  1  0  0  0
 14 23  2  0  0  0
 15 16  1  0  0  0
 15 38  1  0  0  0
 15 39  1  0  0  0
 16 21  1  0  0  0
 16 17  2  0  0  0
 17 18  1  0  0  0
 17 40  1  0  0  0
 18 19  2  0  0  0
 18 41  1  0  0  0
 19 20  1  0  0  0
 19 42  1  0  0  0
 20 21  2  0  0  0
 20 43  1  0  0  0
 21 44  1  0  0  0
 22 24  1  0  0  0
 22 45  1  0  0  0
 24 25  1  0  0  0
 24 46  1  0  0  0
 24 47  1  0  0  0
 25 26  1  0  0  0
 25 48  1  0  0  0
M  END
> <chembl_id>
CHEMBL498580

> <chembl_pref_name>
None

> <i_m_ct_stereo_status>
1

> <s_m_source_file>
sdf/inactives_sanitized.sdf

> <i_m_source_file_index>
306

> <i_lp_mmshare_version>
49012

> <i_f3d_flags>
0

> <s_epik_input>
W2NIXTFbY0hdW2NIXVtjSF1bY0hdYzFbQ0gyXVtDQEBIXShDKD1PKVtOSF1bQ0gyXVtDQEBIXTJbQ0gyXU8yKVtOSF1DKD1PKU9bQ0gyXWMzW2NIXVtjSF1bY0hdW2NIXVtjSF0z

> <s_epik_cmdline>
J2VwaWtfcHl0aG9uJywgJy1waHQnLCAnMC41JywgJy1waCcsICc3LjUnLCAnLW50JywgJy1tYScsICcyMDAnLCAnLWltYWUnLCAnPGluZmlsZS5tYWU+JywgJy1vbWFlJywgJzxvdXRmaWxlLm1hZT4n

> <r_lp_tautomer_probability>
1

> <r_epik_Ionization_Penalty>
  0.0000

> <r_epik_Ionization_Penalty_Charging>
  0.0000

> <r_epik_Ionization_Penalty_Neutral>
  0.0000

> <r_epik_State_Penalty>
 -0.0000

> <r_epik_Charging_Adjusted_Penalty>
0

> <i_epik_Tot_Q>
0

> <i_epik_Tot_abs_Q>
0

> <s_epik_Chemistry_Notes>
This compound has an ester and may undergo hydrolysis at high or low pH.

> <s_lp_Force_Field>
OPLS3e

> <r_lp_Energy>
27.448967

> <b_lp_Chiralities_Consistent>
1

> <s_lp_Variant>
sdf/inactives_sanitized.sdf:306-1

$$$$
sdf/inactives_sanitized.sdf:307
                    3D
 Schrodinger Suite 2020-1.
 74 77  0  0  1  0            999 V2000
   -0.9289    1.2978   -0.1305 N   0  0  0  0  0  0
   -2.2924    1.8321   -0.0126 C   0  0  2  0  0  0
   -2.9783    1.5222   -1.3501 C   0  0  0  0  0  0
   -3.5634    2.4051   -1.9808 O   0  0  0  0  0  0
   -2.9540    0.1549   -1.8840 C   0  0  0  0  0  0
   -2.2744    3.3384    0.3653 C   0  0  0  0  0  0
   -3.6245    3.8957    0.8648 C   0  0  0  0  0  0
   -3.5459    5.3650    1.2520 C   0  0  0  0  0  0
   -3.1814    5.7252    2.5524 C   0  0  0  0  0  0
   -3.1042    7.0701    2.9051 C   0  0  0  0  0  0
   -3.3928    8.0497    1.9569 C   0  0  0  0  0  0
   -3.7563    7.6973    0.6586 C   0  0  0  0  0  0
   -3.8320    6.3524    0.3049 C   0  0  0  0  0  0
   -0.3537    0.4198    0.7090 C   0  0  0  0  0  0
    1.8038   -0.6218    1.4054 N   0  0  0  0  0  0
    1.0379   -0.0790    0.2805 C   0  0  1  0  0  0
    0.8845   -1.1780   -0.7990 C   0  0  0  0  0  0
    2.2057   -1.6689   -1.4329 C   0  0  0  0  0  0
   -0.8885   -0.0268    1.7251 O   0  0  0  0  0  0
    2.3666    0.1017    2.3919 C   0  0  0  0  0  0
    3.1189   -0.6430    3.5268 C   0  0  0  0  0  0
    2.3171    1.3328    2.4050 O   0  0  0  0  0  0
    2.9671   -2.1866    3.4521 C   0  0  0  0  0  0
    3.7870   -2.8501    4.5740 C   0  0  0  0  0  0
    3.3373   -2.2885    5.9356 N   0  3  0  0  0  0
    3.4656   -0.7568    6.0301 C   0  0  0  0  0  0
    2.6478   -0.1035    4.9003 C   0  0  0  0  0  0
   -3.2107    0.0014   -3.2218 O   0  0  0  0  0  0
   -2.6985   -0.9659   -1.2339 N   0  0  0  0  0  0
   -2.7556   -1.9304   -2.1989 C   0  0  0  0  0  0
   -3.0758   -1.3367   -3.4290 C   0  0  0  0  0  0
   -3.2097   -2.0594   -4.6187 C   0  0  0  0  0  0
   -3.0033   -3.4392   -4.5316 C   0  0  0  0  0  0
   -2.6803   -4.0544   -3.3164 C   0  0  0  0  0  0
   -2.5514   -3.3171   -2.1335 C   0  0  0  0  0  0
    2.9786   -0.5338   -2.1385 C   0  0  0  0  0  0
    1.9489   -2.8705   -2.3684 C   0  0  0  0  0  0
   -0.3922    1.6475   -0.9112 H   0  0  0  0  0  0
   -2.8479    1.3098    0.7698 H   0  0  0  0  0  0
   -1.5399    3.4977    1.1573 H   0  0  0  0  0  0
   -1.9007    3.9437   -0.4632 H   0  0  0  0  0  0
   -4.4007    3.7698    0.1091 H   0  0  0  0  0  0
   -3.9732    3.3181    1.7227 H   0  0  0  0  0  0
   -2.9555    4.9663    3.2876 H   0  0  0  0  0  0
   -2.8217    7.3521    3.9086 H   0  0  0  0  0  0
   -3.3335    9.0929    2.2306 H   0  0  0  0  0  0
   -3.9777    8.4635   -0.0698 H   0  0  0  0  0  0
   -4.1112    6.0792   -0.7026 H   0  0  0  0  0  0
    1.8778   -1.6280    1.4317 H   0  0  0  0  0  0
    1.5848    0.7698   -0.1336 H   0  0  0  0  0  0
    0.3591   -2.0285   -0.3601 H   0  0  0  0  0  0
    0.2389   -0.8161   -1.6014 H   0  0  0  0  0  0
    2.8421   -2.0410   -0.6291 H   0  0  0  0  0  0
    4.1606   -0.3663    3.3515 H   0  0  0  0  0  0
    1.9312   -2.4952    3.6065 H   0  0  0  0  0  0
    3.3685   -2.5844    2.5184 H   0  0  0  0  0  0
    3.6294   -3.9280    4.6266 H   0  0  0  0  0  0
    4.8559   -2.6454    4.4961 H   0  0  0  0  0  0
    2.3749   -2.5493    6.0992 H   0  0  0  0  0  0
    3.1018   -0.4854    7.0216 H   0  0  0  0  0  0
    4.5319   -0.5341    5.9643 H   0  0  0  0  0  0
    2.8202    0.9702    4.9959 H   0  0  0  0  0  0
    1.6022   -0.3545    5.0902 H   0  0  0  0  0  0
   -3.4569   -1.5783   -5.5533 H   0  0  0  0  0  0
   -3.0943   -4.0448   -5.4218 H   0  0  0  0  0  0
   -2.5283   -5.1237   -3.2915 H   0  0  0  0  0  0
   -2.3018   -3.8033   -1.2016 H   0  0  0  0  0  0
    3.3969   -0.8408   -3.0970 H   0  0  0  0  0  0
    3.8135   -0.1984   -1.5226 H   0  0  0  0  0  0
    2.3463    0.3333   -2.3310 H   0  0  0  0  0  0
    2.1629   -2.6449   -3.4132 H   0  0  0  0  0  0
    0.9119   -3.2069   -2.3290 H   0  0  0  0  0  0
    2.5714   -3.7200   -2.0862 H   0  0  0  0  0  0
    3.8865   -2.7142    6.6692 H   0  0  0  0  0  0
  1  2  1  0  0  0
  1 14  1  0  0  0
  1 38  1  0  0  0
  2  3  1  0  0  0
  2  6  1  0  0  0
  2 39  1  0  0  0
  3  4  2  0  0  0
  3  5  1  0  0  0
  5 28  1  0  0  0
  5 29  2  0  0  0
  6  7  1  0  0  0
  6 40  1  0  0  0
  6 41  1  0  0  0
  7  8  1  0  0  0
  7 42  1  0  0  0
  7 43  1  0  0  0
  8 13  2  0  0  0
  8  9  1  0  0  0
  9 10  2  0  0  0
  9 44  1  0  0  0
 10 11  1  0  0  0
 10 45  1  0  0  0
 11 12  2  0  0  0
 11 46  1  0  0  0
 12 13  1  0  0  0
 12 47  1  0  0  0
 13 48  1  0  0  0
 14 16  1  0  0  0
 14 19  2  0  0  0
 15 16  1  0  0  0
 15 20  1  0  0  0
 15 49  1  0  0  0
 16 17  1  0  0  0
 16 50  1  0  0  0
 17 18  1  0  0  0
 17 51  1  0  0  0
 17 52  1  0  0  0
 18 36  1  0  0  0
 18 37  1  0  0  0
 18 53  1  0  0  0
 20 21  1  0  0  0
 20 22  2  0  0  0
 21 23  1  0  0  0
 21 27  1  0  0  0
 21 54  1  0  0  0
 23 24  1  0  0  0
 23 55  1  0  0  0
 23 56  1  0  0  0
 24 25  1  0  0  0
 24 57  1  0  0  0
 24 58  1  0  0  0
 25 26  1  0  0  0
 25 59  1  0  0  0
 25 74  1  0  0  0
 26 27  1  0  0  0
 26 60  1  0  0  0
 26 61  1  0  0  0
 27 62  1  0  0  0
 27 63  1  0  0  0
 28 31  1  0  0  0
 29 30  1  0  0  0
 30 31  2  0  0  0
 30 35  1  0  0  0
 31 32  1  0  0  0
 32 33  2  0  0  0
 32 64  1  0  0  0
 33 34  1  0  0  0
 33 65  1  0  0  0
 34 35  2  0  0  0
 34 66  1  0  0  0
 35 67  1  0  0  0
 36 68  1  0  0  0
 36 69  1  0  0  0
 36 70  1  0  0  0
 37 71  1  0  0  0
 37 72  1  0  0  0
 37 73  1  0  0  0
M  CHG  1  25   1
M  END
> <chembl_id>
CHEMBL270792

> <chembl_pref_name>
None

> <i_m_ct_stereo_status>
1

> <s_m_source_file>
sdf/inactives_sanitized.sdf

> <i_m_source_file_index>
307

> <i_lp_mmshare_version>
49012

> <i_f3d_flags>
0

> <s_epik_input>
W2NIXTFbY0hdW2NIXVtjSF1bY0hdYzFbQ0gyXVtDSDJdW0NAQEhdKEMoPU8pYyhuMilvYyhjMjMpW2NIXVtjSF1bY0hdW2NIXTMpW05IXUMoPU8pW0NASF0oW0NIMl1bQ0hdKFtDSDNdKVtDSDNdKVtOSF1DKD1PKVtDSF00W0NIMl1bQ0gyXVtOSF1bQ0gyXVtDSDJdNA==

> <s_epik_cmdline>
J2VwaWtfcHl0aG9uJywgJy1waHQnLCAnMC41JywgJy1waCcsICc3LjUnLCAnLW50JywgJy1tYScsICcyMDAnLCAnLWltYWUnLCAnPGluZmlsZS5tYWU+JywgJy1vbWFlJywgJzxvdXRmaWxlLm1hZT4n

> <r_lp_tautomer_probability>
1

> <r_epik_Ionization_Penalty>
  0.0038

> <r_epik_Ionization_Penalty_Charging>
  0.0038

> <r_epik_Ionization_Penalty_Neutral>
  0.0000

> <r_epik_State_Penalty>
 -0.0000

> <r_epik_Charging_Adjusted_Penalty>
0.0037671461924843

> <i_epik_Tot_Q>
1

> <i_epik_Tot_abs_Q>
1

> <s_lp_Force_Field>
OPLS3e

> <r_lp_Energy>
57.167488

> <b_lp_Chiralities_Consistent>
1

> <s_lp_Variant>
sdf/inactives_sanitized.sdf:307-1

$$$$
sdf/inactives_sanitized.sdf:308
                    3D
 Schrodinger Suite 2020-1.
 75 78  0  0  1  0            999 V2000
    0.3120   -2.9207   -6.6518 C   0  0  0  0  0  0
   -0.1720   -1.6893   -7.0895 C   0  0  0  0  0  0
   -1.0627   -0.9722   -6.2975 C   0  0  0  0  0  0
   -1.4749   -1.4882   -5.0724 C   0  0  0  0  0  0
   -1.0071   -2.7361   -4.6252 C   0  0  0  0  0  0
   -0.0881   -3.4572   -5.4183 C   0  0  0  0  0  0
   -3.1087    0.3666    1.4739 C   0  0  0  0  0  0
   -3.0850   -0.9049    1.2759 N   0  0  0  0  0  0
   -0.5436    0.0339   -0.1728 N   0  0  0  0  0  0
   -2.5112   -1.4008    0.0342 C   0  0  1  0  0  0
   -0.9682   -1.2448    0.0953 C   0  0  0  0  0  0
   -2.9966   -2.8523   -0.2447 C   0  0  0  0  0  0
   -2.3379   -3.4486   -1.3691 O   0  0  0  0  0  0
   -0.2325   -2.2092    0.3285 O   0  0  0  0  0  0
   -2.5674    1.3794    0.5048 C   0  0  0  0  0  0
   -1.3832    1.1963   -0.2859 C   0  0  0  0  0  0
   -1.0122    2.2411   -1.1538 C   0  0  0  0  0  0
   -1.7604    3.4041   -1.2843 C   0  0  0  0  0  0
   -2.9147    3.5649   -0.5362 C   0  0  0  0  0  0
   -3.3105    2.5640    0.3412 C   0  0  0  0  0  0
   -3.6901    0.8662    2.7420 C   0  0  0  0  0  0
   -4.8734    0.3107    3.2471 C   0  0  0  0  0  0
   -5.4182    0.7778    4.4399 C   0  0  0  0  0  0
   -4.7851    1.8075    5.1523 C   0  0  0  0  0  0
   -3.6037    2.3539    4.6516 C   0  0  0  0  0  0
   -3.0566    1.8894    3.4588 C   0  0  0  0  0  0
   -2.5165   -2.9724   -2.6220 C   0  0  0  0  0  0
   -1.3754   -3.2490   -3.3663 N   0  0  0  0  0  0
   -3.5083   -2.3391   -2.9898 O   0  0  0  0  0  0
    0.9288    0.1995   -0.3435 C   0  0  0  0  0  0
    1.4285   -0.2978   -1.7239 C   0  0  0  0  0  0
    0.6841   -0.8889   -2.5092 O   0  0  0  0  0  0
    2.7167   -0.0370   -2.0051 N   0  0  0  0  0  0
    3.4177   -0.4563   -3.2239 C   0  0  0  0  0  0
    2.9910    0.1622   -4.5536 C   0  0  0  0  0  0
    2.0080    1.0657   -4.7551 C   0  0  0  0  0  0
    1.6663    1.5748   -6.0776 C   0  0  0  0  0  0
    0.5490    2.3333   -6.0471 O   0  0  0  0  0  0
    2.3223    1.3326   -7.0951 O   0  0  0  0  0  0
    0.0284    2.9071   -7.2379 C   0  0  0  0  0  0
    0.3399   -1.0487   -8.6079 Cl  0  0  0  0  0  0
    0.4823   -4.8083   -4.9610 C   0  0  0  0  0  0
    1.1477   -4.6532   -3.8153 F   0  0  0  0  0  0
   -0.5102   -5.6774   -4.7662 F   0  0  0  0  0  0
    1.3222   -5.3428   -5.8501 F   0  0  0  0  0  0
   -5.2529    2.3338    6.3412 O   0  0  0  0  0  0
   -6.4578    1.8219    6.9011 C   0  0  0  0  0  0
    1.0095   -3.4532   -7.2819 H   0  0  0  0  0  0
   -1.4286   -0.0101   -6.6251 H   0  0  0  0  0  0
   -2.1426   -0.8899   -4.4715 H   0  0  0  0  0  0
   -2.8921   -0.8305   -0.8182 H   0  0  0  0  0  0
   -2.7949   -3.4805    0.6239 H   0  0  0  0  0  0
   -4.0775   -2.8731   -0.3935 H   0  0  0  0  0  0
   -0.1284    2.1535   -1.7678 H   0  0  0  0  0  0
   -1.4462    4.1771   -1.9701 H   0  0  0  0  0  0
   -3.5062    4.4629   -0.6368 H   0  0  0  0  0  0
   -4.2238    2.7261    0.8967 H   0  0  0  0  0  0
   -5.3836   -0.4817    2.7174 H   0  0  0  0  0  0
   -6.3326    0.3278    4.7955 H   0  0  0  0  0  0
   -3.1047    3.1445    5.1926 H   0  0  0  0  0  0
   -2.1362    2.3299    3.1018 H   0  0  0  0  0  0
   -0.7131   -3.8842   -2.9455 H   0  0  0  0  0  0
    1.2143    1.2435   -0.2117 H   0  0  0  0  0  0
    1.4649   -0.3380    0.4409 H   0  0  0  0  0  0
    3.2517    0.5144   -1.3501 H   0  0  0  0  0  0
    4.4713   -0.2099   -3.0904 H   0  0  0  0  0  0
    3.3989   -1.5447   -3.3043 H   0  0  0  0  0  0
    3.5602   -0.1975   -5.4000 H   0  0  0  0  0  0
    1.4232    1.4437   -3.9291 H   0  0  0  0  0  0
   -0.8732    3.4764   -7.0109 H   0  0  0  0  0  0
   -0.2321    2.1341   -7.9628 H   0  0  0  0  0  0
    0.7514    3.5835   -7.6965 H   0  0  0  0  0  0
   -6.6755    2.3483    7.8302 H   0  0  0  0  0  0
   -6.3704    0.7602    7.1367 H   0  0  0  0  0  0
   -7.3056    1.9716    6.2309 H   0  0  0  0  0  0
  1  6  2  0  0  0
  1  2  1  0  0  0
  1 48  1  0  0  0
  2 41  1  0  0  0
  2  3  2  0  0  0
  3  4  1  0  0  0
  3 49  1  0  0  0
  4  5  2  0  0  0
  4 50  1  0  0  0
  5  6  1  0  0  0
  5 28  1  0  0  0
  6 42  1  0  0  0
  7 21  1  0  0  0
  7 15  1  0  0  0
  7  8  2  0  0  0
  8 10  1  0  0  0
  9 30  1  0  0  0
  9 16  1  0  0  0
  9 11  1  0  0  0
 10 11  1  0  0  0
 10 12  1  0  0  0
 10 51  1  0  0  0
 11 14  2  0  0  0
 12 13  1  0  0  0
 12 52  1  0  0  0
 12 53  1  0  0  0
 13 27  1  0  0  0
 15 16  2  0  0  0
 15 20  1  0  0  0
 16 17  1  0  0  0
 17 18  2  0  0  0
 17 54  1  0  0  0
 18 19  1  0  0  0
 18 55  1  0  0  0
 19 20  2  0  0  0
 19 56  1  0  0  0
 20 57  1  0  0  0
 21 26  1  0  0  0
 21 22  2  0  0  0
 22 23  1  0  0  0
 22 58  1  0  0  0
 23 24  2  0  0  0
 23 59  1  0  0  0
 24 25  1  0  0  0
 24 46  1  0  0  0
 25 26  2  0  0  0
 25 60  1  0  0  0
 26 61  1  0  0  0
 27 28  1  0  0  0
 27 29  2  0  0  0
 28 62  1  0  0  0
 30 31  1  0  0  0
 30 63  1  0  0  0
 30 64  1  0  0  0
 31 32  2  0  0  0
 31 33  1  0  0  0
 33 34  1  0  0  0
 33 65  1  0  0  0
 34 35  1  0  0  0
 34 66  1  0  0  0
 34 67  1  0  0  0
 35 36  2  0  0  0
 35 68  1  0  0  0
 36 37  1  0  0  0
 36 69  1  0  0  0
 37 38  1  0  0  0
 37 39  2  0  0  0
 38 40  1  0  0  0
 40 70  1  0  0  0
 40 71  1  0  0  0
 40 72  1  0  0  0
 42 43  1  0  0  0
 42 44  1  0  0  0
 42 45  1  0  0  0
 46 47  1  0  0  0
 47 73  1  0  0  0
 47 74  1  0  0  0
 47 75  1  0  0  0
M  END
> <chembl_id>
CHEMBL1171634

> <chembl_pref_name>
None

> <i_m_ct_stereo_status>
1

> <s_m_source_file>
sdf/inactives_sanitized.sdf

> <i_m_source_file_index>
308

> <i_lp_mmshare_version>
49012

> <i_f3d_flags>
0

> <s_epik_input>
Q2xjMVtjSF1jKEMoRikoRilGKWMoW2NIXVtjSF0xKVtOSF1DKD1PKU9bQ0gyXVtDQEBIXShOPUMyYzNbY0hdW2NIXWMoW2NIXVtjSF0zKU9bQ0gzXSlDKD1PKU4oYyhjMjQpW2NIXVtjSF1bY0hdW2NIXTQpW0NIMl1DKD1PKVtOSF1bQ0gyXS9bQ0hdPVtDSF0vQyg9TylPW0NIM10=

> <s_epik_cmdline>
J2VwaWtfcHl0aG9uJywgJy1waHQnLCAnMC41JywgJy1waCcsICc3LjUnLCAnLW50JywgJy1tYScsICcyMDAnLCAnLWltYWUnLCAnPGluZmlsZS5tYWU+JywgJy1vbWFlJywgJzxvdXRmaWxlLm1hZT4n

> <r_lp_tautomer_probability>
1

> <r_epik_Ionization_Penalty>
  0.0005

> <r_epik_Ionization_Penalty_Charging>
  0.0000

> <r_epik_Ionization_Penalty_Neutral>
  0.0005

> <r_epik_State_Penalty>
 -0.0000

> <r_epik_Charging_Adjusted_Penalty>
0

> <i_epik_Tot_Q>
0

> <i_epik_Tot_abs_Q>
0

> <s_epik_Chemistry_Notes>
This compound has an ester and may undergo hydrolysis at high or low pH. This compound has an imine and may undergo hydrolysis.

> <s_lp_Force_Field>
OPLS3e

> <r_lp_Energy>
68.364126

> <b_lp_Chiralities_Consistent>
1

> <s_lp_Variant>
sdf/inactives_sanitized.sdf:308-1

$$$$
sdf/inactives_sanitized.sdf:309
                    3D
 Schrodinger Suite 2020-1.
 74 78  0  0  1  0            999 V2000
   -0.8789   -8.3277   -5.3275 C   0  0  0  0  0  0
   -2.0630   -7.6214   -5.1535 C   0  0  0  0  0  0
   -2.0912   -6.4699   -4.3777 C   0  0  0  0  0  0
   -0.9342   -5.9954   -3.7481 C   0  0  0  0  0  0
   -2.6580    0.4544    1.2876 C   0  0  0  0  0  0
   -2.5456   -0.8059    1.0657 N   0  0  0  0  0  0
    0.0083    0.3037   -0.1715 N   0  0  0  0  0  0
   -1.8895   -1.2548   -0.1551 C   0  0  1  0  0  0
   -0.3588   -1.0153   -0.0357 C   0  0  0  0  0  0
   -2.2896   -2.7286   -0.4082 C   0  0  0  0  0  0
   -1.6105   -3.2604   -1.5438 O   0  0  0  0  0  0
    0.4213   -1.9543    0.1551 O   0  0  0  0  0  0
   -2.1310    1.5129    0.3696 C   0  0  0  0  0  0
   -0.8818    1.4221   -0.3253 C   0  0  0  0  0  0
   -0.4992    2.5229   -1.1154 C   0  0  0  0  0  0
   -1.3080    3.6405   -1.2805 C   0  0  0  0  0  0
   -2.5353    3.7005   -0.6415 C   0  0  0  0  0  0
   -2.9377    2.6491    0.1714 C   0  0  0  0  0  0
   -3.3253    0.8950    2.5364 C   0  0  0  0  0  0
   -4.4800    0.2409    2.9931 C   0  0  0  0  0  0
   -5.1039    0.6540    4.1673 C   0  0  0  0  0  0
   -4.5760    1.7186    4.8929 C   0  0  0  0  0  0
   -3.4270    2.3727    4.4568 C   0  0  0  0  0  0
   -2.8013    1.9612    3.2831 C   0  0  0  0  0  0
   -1.9240   -4.4682   -2.0444 C   0  0  0  0  0  0
   -0.9711   -4.8112   -2.9956 N   0  0  0  0  0  0
   -2.8887   -5.1497   -1.6885 O   0  0  0  0  0  0
    1.4779    0.5526   -0.1704 C   0  0  0  0  0  0
    2.1253    0.2664   -1.5470 C   0  0  0  0  0  0
    1.4401    0.0398   -2.5480 O   0  0  0  0  0  0
    3.4695    0.2846   -1.5706 N   0  0  0  0  0  0
    4.2832    0.0082   -2.7541 C   0  0  0  0  0  0
    4.2356   -1.4425   -3.2035 C   0  0  0  0  0  0
    3.7108   -1.8535   -4.3745 C   0  0  0  0  0  0
    3.6696   -3.2541   -4.7753 C   0  0  0  0  0  0
    3.0239   -3.4182   -5.9506 O   0  0  0  0  0  0
    4.1715   -4.1685   -4.1157 O   0  0  0  0  0  0
    2.8607   -4.7098   -6.5200 C   0  0  0  0  0  0
    0.3184   -7.8840   -4.7160 C   0  0  0  0  0  0
    0.3017   -6.6985   -3.9123 C   0  0  0  0  0  0
    1.5220   -6.2826   -3.3033 C   0  0  0  0  0  0
    2.6939   -7.0104   -3.4860 C   0  0  0  0  0  0
    2.7006   -8.1544   -4.2732 C   0  0  0  0  0  0
    1.5327   -8.5954   -4.8862 C   0  0  0  0  0  0
   -0.8689   -9.2221   -5.9341 H   0  0  0  0  0  0
   -2.9687   -7.9684   -5.6291 H   0  0  0  0  0  0
   -3.0264   -5.9385   -4.2756 H   0  0  0  0  0  0
   -2.2639   -0.7124   -1.0286 H   0  0  0  0  0  0
   -2.0533   -3.3410    0.4643 H   0  0  0  0  0  0
   -3.3691   -2.7905   -0.5596 H   0  0  0  0  0  0
    0.4423    2.5170   -1.6429 H   0  0  0  0  0  0
   -0.9833    4.4570   -1.9089 H   0  0  0  0  0  0
   -3.1735    4.5623   -0.7711 H   0  0  0  0  0  0
   -3.9010    2.7345    0.6550 H   0  0  0  0  0  0
   -4.9051   -0.5857    2.4408 H   0  0  0  0  0  0
   -5.9942    0.1502    4.5139 H   0  0  0  0  0  0
   -5.0608    2.0384    5.8035 H   0  0  0  0  0  0
   -3.0215    3.1949    5.0278 H   0  0  0  0  0  0
   -1.9060    2.4760    2.9635 H   0  0  0  0  0  0
   -0.1710   -4.2009   -3.0752 H   0  0  0  0  0  0
    1.6788    1.5894    0.1012 H   0  0  0  0  0  0
    1.9736   -0.0425    0.5990 H   0  0  0  0  0  0
    3.9680    0.4183   -0.7027 H   0  0  0  0  0  0
    4.0280    0.6974   -3.5620 H   0  0  0  0  0  0
    5.3179    0.2277   -2.4897 H   0  0  0  0  0  0
    4.6535   -2.1573   -2.5076 H   0  0  0  0  0  0
    3.2889   -1.1342   -5.0627 H   0  0  0  0  0  0
    2.3912   -4.6241   -7.4998 H   0  0  0  0  0  0
    2.2237   -5.3351   -5.8943 H   0  0  0  0  0  0
    3.8211   -5.2111   -6.6481 H   0  0  0  0  0  0
    1.5463   -5.3943   -2.6889 H   0  0  0  0  0  0
    3.6080   -6.6802   -3.0149 H   0  0  0  0  0  0
    3.6194   -8.7056   -4.4081 H   0  0  0  0  0  0
    1.5471   -9.4885   -5.4943 H   0  0  0  0  0  0
  1  2  2  0  0  0
  1 39  1  0  0  0
  1 45  1  0  0  0
  2  3  1  0  0  0
  2 46  1  0  0  0
  3  4  2  0  0  0
  3 47  1  0  0  0
  4 40  1  0  0  0
  4 26  1  0  0  0
  5 19  1  0  0  0
  5 13  1  0  0  0
  5  6  2  0  0  0
  6  8  1  0  0  0
  7 28  1  0  0  0
  7 14  1  0  0  0
  7  9  1  0  0  0
  8 10  1  0  0  0
  8  9  1  0  0  0
  8 48  1  0  0  0
  9 12  2  0  0  0
 10 11  1  0  0  0
 10 49  1  0  0  0
 10 50  1  0  0  0
 11 25  1  0  0  0
 13 14  2  0  0  0
 13 18  1  0  0  0
 14 15  1  0  0  0
 15 16  2  0  0  0
 15 51  1  0  0  0
 16 17  1  0  0  0
 16 52  1  0  0  0
 17 18  2  0  0  0
 17 53  1  0  0  0
 18 54  1  0  0  0
 19 24  1  0  0  0
 19 20  2  0  0  0
 20 21  1  0  0  0
 20 55  1  0  0  0
 21 22  2  0  0  0
 21 56  1  0  0  0
 22 23  1  0  0  0
 22 57  1  0  0  0
 23 24  2  0  0  0
 23 58  1  0  0  0
 24 59  1  0  0  0
 25 26  1  0  0  0
 25 27  2  0  0  0
 26 60  1  0  0  0
 28 29  1  0  0  0
 28 61  1  0  0  0
 28 62  1  0  0  0
 29 30  2  0  0  0
 29 31  1  0  0  0
 31 32  1  0  0  0
 31 63  1  0  0  0
 32 33  1  0  0  0
 32 64  1  0  0  0
 32 65  1  0  0  0
 33 34  2  0  0  0
 33 66  1  0  0  0
 34 35  1  0  0  0
 34 67  1  0  0  0
 35 36  1  0  0  0
 35 37  2  0  0  0
 36 38  1  0  0  0
 38 68  1  0  0  0
 38 69  1  0  0  0
 38 70  1  0  0  0
 39 40  2  0  0  0
 39 44  1  0  0  0
 40 41  1  0  0  0
 41 42  2  0  0  0
 41 71  1  0  0  0
 42 43  1  0  0  0
 42 72  1  0  0  0
 43 44  2  0  0  0
 43 73  1  0  0  0
 44 74  1  0  0  0
M  END
> <chembl_id>
CHEMBL1171636

> <chembl_pref_name>
None

> <i_m_ct_stereo_status>
1

> <s_m_source_file>
sdf/inactives_sanitized.sdf

> <i_m_source_file_index>
309

> <i_lp_mmshare_version>
49012

> <i_f3d_flags>
0

> <s_epik_input>
W2NIXTFbY0hdW2NIXVtjSF1jKGMxMiljKFtjSF1bY0hdW2NIXTIpW05IXUMoPU8pT1tDSDJdW0NAQEhdKE49QzNjNFtjSF1bY0hdW2NIXVtjSF1bY0hdNClDKD1PKU4oYyhjMzUpW2NIXVtjSF1bY0hdW2NIXTUpW0NIMl1DKD1PKVtOSF1bQ0gyXS9bQ0hdPVtDSF0vQyg9TylPW0NIM10=

> <s_epik_cmdline>
J2VwaWtfcHl0aG9uJywgJy1waHQnLCAnMC41JywgJy1waCcsICc3LjUnLCAnLW50JywgJy1tYScsICcyMDAnLCAnLWltYWUnLCAnPGluZmlsZS5tYWU+JywgJy1vbWFlJywgJzxvdXRmaWxlLm1hZT4n

> <r_lp_tautomer_probability>
1

> <r_epik_Ionization_Penalty>
  0.0000

> <r_epik_Ionization_Penalty_Charging>
  0.0000

> <r_epik_Ionization_Penalty_Neutral>
  0.0000

> <r_epik_State_Penalty>
 -0.0000

> <r_epik_Charging_Adjusted_Penalty>
0

> <i_epik_Tot_Q>
0

> <i_epik_Tot_abs_Q>
0

> <s_epik_Chemistry_Notes>
This compound has an ester and may undergo hydrolysis at high or low pH. This compound has an imine and may undergo hydrolysis.

> <s_lp_Force_Field>
OPLS3e

> <r_lp_Energy>
79.137242

> <b_lp_Chiralities_Consistent>
1

> <s_lp_Variant>
sdf/inactives_sanitized.sdf:309-1

$$$$
sdf/inactives_sanitized.sdf:310
                    3D
 Schrodinger Suite 2020-1.
 87 90  0  0  1  0            999 V2000
    6.7836   -0.7554   -7.1290 N   0  0  0  0  0  0
    5.6732   -1.4524   -7.1381 C   0  0  0  0  0  0
    4.9957   -1.3784   -5.9760 N   0  0  0  0  0  0
    5.7247   -0.5709   -5.1514 C   0  0  0  0  0  0
    5.4682   -0.1893   -3.8772 N   0  0  0  0  0  0
    6.4236    0.6160   -3.3831 C   0  0  0  0  0  0
    7.5400    1.0477   -4.0100 N   0  0  0  0  0  0
    7.7703    0.6483   -5.2896 C   0  0  0  0  0  0
    6.8261   -0.2044   -5.9028 C   0  0  0  0  0  0
    8.9220    1.0968   -5.9332 N   0  0  0  0  0  0
    0.9961   -1.6476    2.4033 C   0  0  0  0  0  0
    2.0407   -0.8117    2.8515 C   0  0  0  0  0  0
    1.8809   -0.0607    4.0089 C   0  0  0  0  0  0
    0.6862   -0.1095    4.7167 C   0  0  0  0  0  0
   -0.3625   -0.9031    4.2696 C   0  0  0  0  0  0
   -0.2228   -1.6616    3.1148 C   0  0  0  0  0  0
   -5.5237    4.4464    6.1777 C   0  0  0  0  0  0
   -4.3985    5.0820    6.6997 C   0  0  0  0  0  0
   -3.1266    4.5440    6.5123 C   0  0  0  0  0  0
   -2.9784    3.3585    5.7967 C   0  0  0  0  0  0
   -4.1036    2.7176    5.2724 C   0  0  0  0  0  0
   -5.3763    3.2609    5.4620 C   0  0  0  0  0  0
   -3.9402    1.4265    4.4930 C   0  0  0  0  0  0
   -3.6160    1.7276    3.1416 O   0  0  0  0  0  0
   -3.2788    0.7488    2.2817 C   0  0  0  0  0  0
   -2.9615    1.3187    1.0541 N   0  0  0  0  0  0
   -3.2535   -0.4536    2.5576 O   0  0  0  0  0  0
   -2.4173    0.4996   -0.0423 C   0  0  2  0  0  0
   -0.9129    0.1986    0.1505 C   0  0  0  0  0  0
   -2.6437    1.2349   -1.3915 C   0  0  0  0  0  0
   -4.1253    1.4322   -1.7950 C   0  0  0  0  0  0
   -4.8695    0.0916   -1.9760 C   0  0  0  0  0  0
   -4.2450    2.3385   -3.0394 C   0  0  0  0  0  0
   -0.1628    1.0672    0.6003 O   0  0  0  0  0  0
   -0.5030   -1.0230   -0.2346 N   0  0  0  0  0  0
    0.8857   -1.5040   -0.1854 C   0  0  2  0  0  0
    1.0906   -2.2697   -1.4905 C   0  0  0  0  0  0
    1.1215   -2.3803    1.0767 C   0  0  0  0  0  0
    1.0971   -1.3950   -2.8188 C   0  0  0  0  0  0
    1.2821   -3.4889   -1.5446 O   0  0  0  0  0  0
    1.0488   -0.1642   -2.7827 O   0  0  0  0  0  0
    1.1542   -2.1490   -3.9327 N   0  0  0  0  0  0
    1.1909   -1.6161   -5.2938 C   0  0  0  0  0  0
    2.5529   -1.0124   -5.6917 C   0  0  0  0  0  0
    3.7133   -2.0277   -5.6659 C   0  0  0  0  0  0
    6.1755    0.9956   -2.1119 O   0  0  0  0  0  0
    7.1102    1.8518   -1.4502 C   0  0  0  0  0  0
    5.2968   -2.0353   -7.9665 H   0  0  0  0  0  0
    9.0996    0.8106   -6.8852 H   0  0  0  0  0  0
    9.5573    1.7082   -5.4417 H   0  0  0  0  0  0
    2.9638   -0.7493    2.2940 H   0  0  0  0  0  0
    2.6850    0.5722    4.3541 H   0  0  0  0  0  0
    0.5679    0.4817    5.6128 H   0  0  0  0  0  0
   -1.2951   -0.9214    4.8142 H   0  0  0  0  0  0
   -1.0528   -2.2556    2.7610 H   0  0  0  0  0  0
   -6.5055    4.8711    6.3273 H   0  0  0  0  0  0
   -4.5134    6.0016    7.2544 H   0  0  0  0  0  0
   -2.2599    5.0441    6.9194 H   0  0  0  0  0  0
   -1.9927    2.9408    5.6488 H   0  0  0  0  0  0
   -6.2481    2.7684    5.0560 H   0  0  0  0  0  0
   -3.1566    0.8241    4.9571 H   0  0  0  0  0  0
   -4.8604    0.8417    4.5420 H   0  0  0  0  0  0
   -2.9732    2.3232    0.9525 H   0  0  0  0  0  0
   -2.9582   -0.4489   -0.0871 H   0  0  0  0  0  0
   -2.1508    2.2090   -1.3512 H   0  0  0  0  0  0
   -2.1438    0.6929   -2.1976 H   0  0  0  0  0  0
   -4.6191    1.9670   -0.9827 H   0  0  0  0  0  0
   -4.1808   -0.7476   -2.0776 H   0  0  0  0  0  0
   -5.5143    0.0820   -2.8547 H   0  0  0  0  0  0
   -5.5062   -0.1120   -1.1146 H   0  0  0  0  0  0
   -4.6449    1.8136   -3.9069 H   0  0  0  0  0  0
   -3.2812    2.7500   -3.3411 H   0  0  0  0  0  0
   -4.9047    3.1835   -2.8398 H   0  0  0  0  0  0
   -1.1870   -1.6893   -0.5624 H   0  0  0  0  0  0
    1.5902   -0.6688   -0.1512 H   0  0  0  0  0  0
    0.4298   -3.2250    1.0915 H   0  0  0  0  0  0
    2.1235   -2.8116    1.0385 H   0  0  0  0  0  0
    1.1855   -3.1539   -3.8366 H   0  0  0  0  0  0
    0.9756   -2.4609   -5.9492 H   0  0  0  0  0  0
    0.3865   -0.8945   -5.4498 H   0  0  0  0  0  0
    2.4671   -0.5924   -6.6949 H   0  0  0  0  0  0
    2.7745   -0.1681   -5.0367 H   0  0  0  0  0  0
    3.8424   -2.4951   -4.6883 H   0  0  0  0  0  0
    3.5722   -2.8206   -6.4022 H   0  0  0  0  0  0
    6.7578    2.0537   -0.4388 H   0  0  0  0  0  0
    7.2095    2.8106   -1.9617 H   0  0  0  0  0  0
    8.0940    1.3866   -1.3685 H   0  0  0  0  0  0
  1  9  1  0  0  0
  1  2  2  0  0  0
  2  3  1  0  0  0
  2 48  1  0  0  0
  3 45  1  0  0  0
  3  4  1  0  0  0
  4  5  2  0  0  0
  4  9  1  0  0  0
  5  6  1  0  0  0
  6  7  2  0  0  0
  6 46  1  0  0  0
  7  8  1  0  0  0
  8  9  2  0  0  0
  8 10  1  0  0  0
 10 49  1  0  0  0
 10 50  1  0  0  0
 11 16  1  0  0  0
 11 12  2  0  0  0
 11 38  1  0  0  0
 12 13  1  0  0  0
 12 51  1  0  0  0
 13 14  2  0  0  0
 13 52  1  0  0  0
 14 15  1  0  0  0
 14 53  1  0  0  0
 15 16  2  0  0  0
 15 54  1  0  0  0
 16 55  1  0  0  0
 17 22  2  0  0  0
 17 18  1  0  0  0
 17 56  1  0  0  0
 18 19  2  0  0  0
 18 57  1  0  0  0
 19 20  1  0  0  0
 19 58  1  0  0  0
 20 21  2  0  0  0
 20 59  1  0  0  0
 21 22  1  0  0  0
 21 23  1  0  0  0
 22 60  1  0  0  0
 23 24  1  0  0  0
 23 61  1  0  0  0
 23 62  1  0  0  0
 24 25  1  0  0  0
 25 26  1  0  0  0
 25 27  2  0  0  0
 26 28  1  0  0  0
 26 63  1  0  0  0
 28 29  1  0  0  0
 28 30  1  0  0  0
 28 64  1  0  0  0
 29 34  2  0  0  0
 29 35  1  0  0  0
 30 31  1  0  0  0
 30 65  1  0  0  0
 30 66  1  0  0  0
 31 32  1  0  0  0
 31 33  1  0  0  0
 31 67  1  0  0  0
 32 68  1  0  0  0
 32 69  1  0  0  0
 32 70  1  0  0  0
 33 71  1  0  0  0
 33 72  1  0  0  0
 33 73  1  0  0  0
 35 36  1  0  0  0
 35 74  1  0  0  0
 36 37  1  0  0  0
 36 38  1  0  0  0
 36 75  1  0  0  0
 37 39  1  0  0  0
 37 40  2  0  0  0
 38 76  1  0  0  0
 38 77  1  0  0  0
 39 41  2  0  0  0
 39 42  1  0  0  0
 42 43  1  0  0  0
 42 78  1  0  0  0
 43 44  1  0  0  0
 43 79  1  0  0  0
 43 80  1  0  0  0
 44 45  1  0  0  0
 44 81  1  0  0  0
 44 82  1  0  0  0
 45 83  1  0  0  0
 45 84  1  0  0  0
 46 47  1  0  0  0
 47 85  1  0  0  0
 47 86  1  0  0  0
 47 87  1  0  0  0
M  END
> <chembl_id>
CHEMBL1240874

> <chembl_pref_name>
None

> <i_m_ct_stereo_status>
1

> <s_m_source_file>
sdf/inactives_sanitized.sdf

> <i_m_source_file_index>
310

> <i_lp_mmshare_version>
49012

> <i_f3d_flags>
0

> <s_epik_input>
W0NIM11PYyhuMSluYyhbTkgyXSljKGMxMiluW2NIXW4yW0NIMl1bQ0gyXVtDSDJdW05IXUMoPU8pQyg9TylbQ0BIXShbQ0gyXWMzW2NIXVtjSF1bY0hdW2NIXVtjSF0zKVtOSF1DKD1PKVtDQEhdKFtDSDJdW0NIXShbQ0gzXSlbQ0gzXSlbTkhdQyg9TylPW0NIMl1jNFtjSF1bY0hdW2NIXVtjSF1bY0hdNA==

> <s_epik_cmdline>
J2VwaWtfcHl0aG9uJywgJy1waHQnLCAnMC41JywgJy1waCcsICc3LjUnLCAnLW50JywgJy1tYScsICcyMDAnLCAnLWltYWUnLCAnPGluZmlsZS5tYWU+JywgJy1vbWFlJywgJzxvdXRmaWxlLm1hZT4n

> <r_lp_tautomer_probability>
1

> <r_epik_Ionization_Penalty>
  0.0000

> <r_epik_Ionization_Penalty_Charging>
  0.0000

> <r_epik_Ionization_Penalty_Neutral>
  0.0000

> <r_epik_State_Penalty>
 -0.0000

> <r_epik_Charging_Adjusted_Penalty>
0

> <i_epik_Tot_Q>
0

> <i_epik_Tot_abs_Q>
0

> <s_epik_Chemistry_Notes>
This compound has an ester and may undergo hydrolysis at high or low pH.

> <s_lp_Force_Field>
OPLS3e

> <r_lp_Energy>
46.889758

> <b_lp_Chiralities_Consistent>
1

> <s_lp_Variant>
sdf/inactives_sanitized.sdf:310-1

$$$$
sdf/inactives_sanitized.sdf:311
                    3D
 Schrodinger Suite 2020-1.
 81 82  0  0  1  0            999 V2000
    1.5340    0.1330    2.4938 C   0  0  0  0  0  0
   -5.3984    4.3521    6.6223 C   0  0  0  0  0  0
   -6.7044    3.9278    6.8606 C   0  0  0  0  0  0
   -7.1164    2.6501    6.4869 C   0  0  0  0  0  0
   -6.2138    1.7878    5.8700 C   0  0  0  0  0  0
   -4.9034    2.2080    5.6305 C   0  0  0  0  0  0
   -4.4951    3.4903    6.0052 C   0  0  0  0  0  0
   -3.9193    1.2660    4.9631 C   0  0  0  0  0  0
   -3.8945    1.5148    3.5631 O   0  0  0  0  0  0
   -3.1590    0.7415    2.7418 C   0  0  0  0  0  0
   -3.3028    1.2050    1.4382 N   0  0  0  0  0  0
   -2.4744   -0.2193    3.1042 O   0  0  0  0  0  0
   -2.5727    0.5770    0.3225 C   0  0  2  0  0  0
   -1.0616    0.9120    0.3301 C   0  0  0  0  0  0
   -3.2132    1.0192   -1.0214 C   0  0  0  0  0  0
   -4.6831    0.5806   -1.2330 C   0  0  0  0  0  0
   -4.8504   -0.9545   -1.2163 C   0  0  0  0  0  0
   -5.2703    1.2172   -2.5114 C   0  0  0  0  0  0
   -0.6809    2.0413    0.6444 O   0  0  0  0  0  0
   -0.2393   -0.0852   -0.0407 N   0  0  0  0  0  0
    1.2299   -0.0174   -0.0811 C   0  0  2  0  0  0
    1.6660   -0.7838   -1.3349 C   0  0  0  0  0  0
    1.8808   -0.6177    1.1969 C   0  0  0  0  0  0
    3.1746   -0.5559   -1.7735 C   0  0  0  0  0  0
    0.9371   -1.5361   -1.9942 O   0  0  0  0  0  0
    3.8591    0.3481   -1.2908 O   0  0  0  0  0  0
    3.5837   -1.4464   -2.6971 N   0  0  0  0  0  0
    4.9226   -1.4822   -3.2811 C   0  0  0  0  0  0
    5.1654   -0.3915   -4.3417 C   0  0  0  0  0  0
    6.5634   -0.4873   -4.9872 C   0  0  0  0  0  0
    6.9262    0.7096   -5.7578 N   0  0  1  0  0  0
    8.3321    0.7228   -6.1839 C   0  0  0  0  0  0
    8.6106   -0.2822   -7.3286 C   0  0  0  0  0  0
    7.6864    0.0603   -8.5192 N   0  3  0  0  0  0
    6.2096    0.0431   -8.0641 C   0  0  0  0  0  0
    6.0499    1.0408   -6.8924 C   0  0  0  0  0  0
    7.9094   -0.9255   -9.6823 C   0  0  0  0  0  0
    2.0672   -0.2940    3.3435 H   0  0  0  0  0  0
    0.4687    0.0786    2.7192 H   0  0  0  0  0  0
    1.8092    1.1860    2.4262 H   0  0  0  0  0  0
   -5.0879    5.3443    6.9152 H   0  0  0  0  0  0
   -7.4046    4.5960    7.3401 H   0  0  0  0  0  0
   -8.1304    2.3297    6.6753 H   0  0  0  0  0  0
   -6.5327    0.7971    5.5798 H   0  0  0  0  0  0
   -3.4826    3.8184    5.8197 H   0  0  0  0  0  0
   -2.9269    1.4091    5.3939 H   0  0  0  0  0  0
   -4.2069    0.2327    5.1668 H   0  0  0  0  0  0
   -3.8100    2.0610    1.2678 H   0  0  0  0  0  0
   -2.6815   -0.5072    0.4043 H   0  0  0  0  0  0
   -3.1505    2.1067   -1.1025 H   0  0  0  0  0  0
   -2.6242    0.6322   -1.8555 H   0  0  0  0  0  0
   -5.2680    0.9765   -0.4017 H   0  0  0  0  0  0
   -3.8995   -1.4712   -1.3498 H   0  0  0  0  0  0
   -5.5202   -1.3148   -1.9972 H   0  0  0  0  0  0
   -5.2694   -1.2834   -0.2646 H   0  0  0  0  0  0
   -5.4991    0.4809   -3.2822 H   0  0  0  0  0  0
   -4.5864    1.9378   -2.9612 H   0  0  0  0  0  0
   -6.1948    1.7509   -2.2882 H   0  0  0  0  0  0
   -0.6368   -0.9863   -0.2647 H   0  0  0  0  0  0
    1.5409    1.0253   -0.1849 H   0  0  0  0  0  0
    1.5796   -1.6604    1.3148 H   0  0  0  0  0  0
    2.9676   -0.6249    1.1016 H   0  0  0  0  0  0
    2.9301   -2.1476   -3.0158 H   0  0  0  0  0  0
    5.6820   -1.4215   -2.4987 H   0  0  0  0  0  0
    5.0762   -2.4646   -3.7296 H   0  0  0  0  0  0
    4.4155   -0.5450   -5.1191 H   0  0  0  0  0  0
    4.9924    0.6080   -3.9384 H   0  0  0  0  0  0
    7.3006   -0.6565   -4.2005 H   0  0  0  0  0  0
    6.6073   -1.3743   -5.6197 H   0  0  0  0  0  0
    8.6011    1.7331   -6.4970 H   0  0  0  0  0  0
    8.9740    0.4980   -5.3307 H   0  0  0  0  0  0
    9.6320   -0.1883   -7.7004 H   0  0  0  0  0  0
    8.4261   -1.3207   -7.0479 H   0  0  0  0  0  0
    5.6209    0.3484   -8.9302 H   0  0  0  0  0  0
    5.9506   -0.9832   -7.7982 H   0  0  0  0  0  0
    5.0091    1.0756   -6.5717 H   0  0  0  0  0  0
    6.2797    2.0523   -7.2318 H   0  0  0  0  0  0
    7.6672   -1.9296   -9.3301 H   0  0  0  0  0  0
    8.9567   -0.8436   -9.9761 H   0  0  0  0  0  0
    7.2531   -0.6158  -10.4966 H   0  0  0  0  0  0
    7.9077    0.9967   -8.8287 H   0  0  0  0  0  0
  1 23  1  0  0  0
  1 38  1  0  0  0
  1 39  1  0  0  0
  1 40  1  0  0  0
  2  7  2  0  0  0
  2  3  1  0  0  0
  2 41  1  0  0  0
  3  4  2  0  0  0
  3 42  1  0  0  0
  4  5  1  0  0  0
  4 43  1  0  0  0
  5  6  2  0  0  0
  5 44  1  0  0  0
  6  7  1  0  0  0
  6  8  1  0  0  0
  7 45  1  0  0  0
  8  9  1  0  0  0
  8 46  1  0  0  0
  8 47  1  0  0  0
  9 10  1  0  0  0
 10 12  2  0  0  0
 10 11  1  0  0  0
 11 13  1  0  0  0
 11 48  1  0  0  0
 13 14  1  0  0  0
 13 15  1  0  0  0
 13 49  1  0  0  0
 14 19  2  0  0  0
 14 20  1  0  0  0
 15 16  1  0  0  0
 15 50  1  0  0  0
 15 51  1  0  0  0
 16 17  1  0  0  0
 16 18  1  0  0  0
 16 52  1  0  0  0
 17 53  1  0  0  0
 17 54  1  0  0  0
 17 55  1  0  0  0
 18 56  1  0  0  0
 18 57  1  0  0  0
 18 58  1  0  0  0
 20 21  1  0  0  0
 20 59  1  0  0  0
 21 23  1  0  0  0
 21 22  1  0  0  0
 21 60  1  0  0  0
 22 24  1  0  0  0
 22 25  2  0  0  0
 23 61  1  0  0  0
 23 62  1  0  0  0
 24 26  2  0  0  0
 24 27  1  0  0  0
 27 28  1  0  0  0
 27 63  1  0  0  0
 28 29  1  0  0  0
 28 64  1  0  0  0
 28 65  1  0  0  0
 29 30  1  0  0  0
 29 66  1  0  0  0
 29 67  1  0  0  0
 30 31  1  0  0  0
 30 68  1  0  0  0
 30 69  1  0  0  0
 31 32  1  0  0  0
 31 36  1  0  0  0
 32 33  1  0  0  0
 32 70  1  0  0  0
 32 71  1  0  0  0
 33 34  1  0  0  0
 33 72  1  0  0  0
 33 73  1  0  0  0
 34 35  1  0  0  0
 34 37  1  0  0  0
 34 81  1  0  0  0
 35 36  1  0  0  0
 35 74  1  0  0  0
 35 75  1  0  0  0
 36 76  1  0  0  0
 36 77  1  0  0  0
 37 78  1  0  0  0
 37 79  1  0  0  0
 37 80  1  0  0  0
M  CHG  1  34   1
M  END
> <chembl_id>
CHEMBL1242987

> <chembl_pref_name>
None

> <i_m_ct_stereo_status>
1

> <s_m_source_file>
sdf/inactives_sanitized.sdf

> <i_m_source_file_index>
311

> <i_lp_mmshare_version>
49012

> <i_f3d_flags>
0

> <s_epik_input>
W0NIMl0xW0NIMl1OKFtDSDNdKVtDSDJdW0NIMl1OMVtDSDJdW0NIMl1bQ0gyXVtOSF1DKD1PKUMoPU8pW0NASF0oW0NIMl1bQ0gzXSlbTkhdQyg9TylbQ0BIXShbQ0gyXVtDSF0oW0NIM10pW0NIM10pW05IXUMoPU8pT1tDSDJdYzJbY0hdW2NIXVtjSF1bY0hdW2NIXTI=

> <s_epik_cmdline>
J2VwaWtfcHl0aG9uJywgJy1waHQnLCAnMC41JywgJy1waCcsICc3LjUnLCAnLW50JywgJy1tYScsICcyMDAnLCAnLWltYWUnLCAnPGluZmlsZS5tYWU+JywgJy1vbWFlJywgJzxvdXRmaWxlLm1hZT4n

> <r_lp_tautomer_probability>
0.99990000499975

> <r_epik_Ionization_Penalty>
  0.0800

> <r_epik_Ionization_Penalty_Charging>
  0.0798

> <r_epik_Ionization_Penalty_Neutral>
  0.0002

> <r_epik_State_Penalty>
  0.1688

> <r_epik_Charging_Adjusted_Penalty>
0.248578541135509

> <i_epik_Tot_Q>
1

> <i_epik_Tot_abs_Q>
1

> <s_epik_Chemistry_Notes>
This compound has an ester and may undergo hydrolysis at high or low pH.

> <s_lp_Force_Field>
OPLS3e

> <r_lp_Energy>
59.606843

> <b_lp_Chiralities_Consistent>
1

> <s_lp_Variant>
sdf/inactives_sanitized.sdf:311-1

$$$$
sdf/inactives_sanitized.sdf:312
                    3D
 Schrodinger Suite 2020-1.
 88 90  0  0  1  0            999 V2000
    3.6335   -0.8640    0.9698 C   0  0  0  0  0  0
    4.4923   -1.8805    0.4992 C   0  0  0  0  0  0
    5.8618   -1.6588    0.4354 C   0  0  0  0  0  0
    6.3898   -0.4292    0.8090 C   0  0  0  0  0  0
    5.5532    0.5928    1.2401 C   0  0  0  0  0  0
    4.1812    0.3909    1.3115 C   0  0  0  0  0  0
   -5.9105    4.1574    6.0558 C   0  0  0  0  0  0
   -5.9102    4.1042    7.4475 C   0  0  0  0  0  0
   -5.1739    3.1318    8.1197 C   0  0  0  0  0  0
   -4.4296    2.2058    7.3933 C   0  0  0  0  0  0
   -4.4189    2.2516    5.9967 C   0  0  0  0  0  0
   -5.1671    3.2309    5.3289 C   0  0  0  0  0  0
   -3.5963    1.2069    5.2465 C   0  0  0  0  0  0
   -3.4194    1.5439    3.8728 O   0  0  0  0  0  0
   -2.8050    0.6961    3.0258 C   0  0  0  0  0  0
   -2.8245    1.2482    1.7501 N   0  0  0  0  0  0
   -2.3211   -0.3933    3.3447 O   0  0  0  0  0  0
   -2.2156    0.5507    0.6041 C   0  0  2  0  0  0
   -0.6705    0.6326    0.5858 C   0  0  0  0  0  0
   -2.7964    1.1346   -0.7135 C   0  0  0  0  0  0
   -4.3219    0.9512   -0.9038 C   0  0  0  0  0  0
   -4.7401   -0.5349   -0.9168 C   0  0  0  0  0  0
   -4.8177    1.7079   -2.1551 C   0  0  0  0  0  0
   -0.0883    1.5963    1.0873 O   0  0  0  0  0  0
   -0.0459   -0.3756   -0.0468 N   0  0  0  0  0  0
    1.3995   -0.4564   -0.2875 C   0  0  2  0  0  0
    1.5411   -1.2915   -1.5590 C   0  0  0  0  0  0
    2.1255   -1.0550    0.9506 C   0  0  0  0  0  0
    1.0476   -0.5991   -2.9034 C   0  0  0  0  0  0
    2.0324   -2.4241   -1.5848 O   0  0  0  0  0  0
    0.6615    0.5712   -2.9245 O   0  0  0  0  0  0
    1.0998   -1.4302   -3.9611 N   0  0  0  0  0  0
    0.6976   -1.0723   -5.3190 C   0  0  0  0  0  0
    1.7405   -0.2183   -6.0711 C   0  0  0  0  0  0
    1.3314    0.1744   -7.5079 C   0  0  0  0  0  0
    1.0396   -0.9698   -8.3841 N   0  0  1  0  0  0
    0.4533   -0.5786   -9.6735 C   0  0  0  0  0  0
    1.4908    0.0734  -10.6205 C   0  0  0  0  0  0
    2.6519   -0.9231  -10.8392 N   0  3  0  0  0  0
    3.2638   -1.3270   -9.4787 C   0  0  0  0  0  0
    2.1401   -1.9223   -8.5978 C   0  0  0  0  0  0
    3.7266   -0.3128  -11.7595 C   0  0  0  0  0  0
    4.0904   -2.8348    0.1915 H   0  0  0  0  0  0
    6.5178   -2.4429    0.0869 H   0  0  0  0  0  0
    7.4558   -0.2632    0.7532 H   0  0  0  0  0  0
    5.9706    1.5509    1.5126 H   0  0  0  0  0  0
    3.5354    1.1965    1.6294 H   0  0  0  0  0  0
   -6.4867    4.9130    5.5421 H   0  0  0  0  0  0
   -6.4881    4.8222    8.0107 H   0  0  0  0  0  0
   -5.1809    3.0958    9.1992 H   0  0  0  0  0  0
   -3.8613    1.4517    7.9188 H   0  0  0  0  0  0
   -5.1818    3.2814    4.2502 H   0  0  0  0  0  0
   -2.6171    1.1181    5.7203 H   0  0  0  0  0  0
   -4.0984    0.2418    5.3330 H   0  0  0  0  0  0
   -3.1688    2.1882    1.6197 H   0  0  0  0  0  0
   -2.4917   -0.5054    0.6530 H   0  0  0  0  0  0
   -2.5557    2.1987   -0.7660 H   0  0  0  0  0  0
   -2.2949    0.6826   -1.5722 H   0  0  0  0  0  0
   -4.8195    1.4174   -0.0523 H   0  0  0  0  0  0
   -3.8934   -1.1956   -1.1047 H   0  0  0  0  0  0
   -5.4908   -0.7550   -1.6755 H   0  0  0  0  0  0
   -5.1692   -0.8198    0.0444 H   0  0  0  0  0  0
   -5.1964    1.0405   -2.9291 H   0  0  0  0  0  0
   -4.0267    2.3012   -2.6146 H   0  0  0  0  0  0
   -5.6237    2.3953   -1.8971 H   0  0  0  0  0  0
   -0.5978   -1.1253   -0.4381 H   0  0  0  0  0  0
    1.8050    0.5409   -0.4778 H   0  0  0  0  0  0
    1.7372   -0.5818    1.8543 H   0  0  0  0  0  0
    1.8801   -2.1109    1.0804 H   0  0  0  0  0  0
    1.4323   -2.3736   -3.8196 H   0  0  0  0  0  0
    0.5158   -1.9956   -5.8696 H   0  0  0  0  0  0
   -0.2708   -0.5676   -5.3155 H   0  0  0  0  0  0
    1.8936    0.7083   -5.5163 H   0  0  0  0  0  0
    2.7198   -0.6978   -6.0692 H   0  0  0  0  0  0
    0.4278    0.7824   -7.4397 H   0  0  0  0  0  0
    2.1018    0.8092   -7.9465 H   0  0  0  0  0  0
    0.0123   -1.4572  -10.1470 H   0  0  0  0  0  0
   -0.3747    0.1111   -9.5031 H   0  0  0  0  0  0
    1.0650    0.2642  -11.6064 H   0  0  0  0  0  0
    1.9133    1.0001  -10.2281 H   0  0  0  0  0  0
    4.0329   -2.0685   -9.6991 H   0  0  0  0  0  0
    3.7315   -0.4420   -9.0437 H   0  0  0  0  0  0
    2.5494   -2.2527   -7.6435 H   0  0  0  0  0  0
    1.7399   -2.8238   -9.0651 H   0  0  0  0  0  0
    4.1217    0.5819  -11.2755 H   0  0  0  0  0  0
    3.2413   -0.0768  -12.7075 H   0  0  0  0  0  0
    4.4994   -1.0703  -11.8976 H   0  0  0  0  0  0
    2.2747   -1.7544  -11.2727 H   0  0  0  0  0  0
  1 28  1  0  0  0
  1  6  2  0  0  0
  1  2  1  0  0  0
  2  3  2  0  0  0
  2 43  1  0  0  0
  3  4  1  0  0  0
  3 44  1  0  0  0
  4  5  2  0  0  0
  4 45  1  0  0  0
  5  6  1  0  0  0
  5 46  1  0  0  0
  6 47  1  0  0  0
  7 12  2  0  0  0
  7  8  1  0  0  0
  7 48  1  0  0  0
  8  9  2  0  0  0
  8 49  1  0  0  0
  9 10  1  0  0  0
  9 50  1  0  0  0
 10 11  2  0  0  0
 10 51  1  0  0  0
 11 12  1  0  0  0
 11 13  1  0  0  0
 12 52  1  0  0  0
 13 14  1  0  0  0
 13 53  1  0  0  0
 13 54  1  0  0  0
 14 15  1  0  0  0
 15 16  1  0  0  0
 15 17  2  0  0  0
 16 18  1  0  0  0
 16 55  1  0  0  0
 18 19  1  0  0  0
 18 20  1  0  0  0
 18 56  1  0  0  0
 19 24  2  0  0  0
 19 25  1  0  0  0
 20 21  1  0  0  0
 20 57  1  0  0  0
 20 58  1  0  0  0
 21 22  1  0  0  0
 21 23  1  0  0  0
 21 59  1  0  0  0
 22 60  1  0  0  0
 22 61  1  0  0  0
 22 62  1  0  0  0
 23 63  1  0  0  0
 23 64  1  0  0  0
 23 65  1  0  0  0
 25 26  1  0  0  0
 25 66  1  0  0  0
 26 27  1  0  0  0
 26 28  1  0  0  0
 26 67  1  0  0  0
 27 29  1  0  0  0
 27 30  2  0  0  0
 28 68  1  0  0  0
 28 69  1  0  0  0
 29 31  2  0  0  0
 29 32  1  0  0  0
 32 33  1  0  0  0
 32 70  1  0  0  0
 33 34  1  0  0  0
 33 71  1  0  0  0
 33 72  1  0  0  0
 34 35  1  0  0  0
 34 73  1  0  0  0
 34 74  1  0  0  0
 35 36  1  0  0  0
 35 75  1  0  0  0
 35 76  1  0  0  0
 36 37  1  0  0  0
 36 41  1  0  0  0
 37 38  1  0  0  0
 37 77  1  0  0  0
 37 78  1  0  0  0
 38 39  1  0  0  0
 38 79  1  0  0  0
 38 80  1  0  0  0
 39 40  1  0  0  0
 39 42  1  0  0  0
 39 88  1  0  0  0
 40 41  1  0  0  0
 40 81  1  0  0  0
 40 82  1  0  0  0
 41 83  1  0  0  0
 41 84  1  0  0  0
 42 85  1  0  0  0
 42 86  1  0  0  0
 42 87  1  0  0  0
M  CHG  1  39   1
M  END
> <chembl_id>
CHEMBL1240876

> <chembl_pref_name>
None

> <i_m_ct_stereo_status>
1

> <s_m_source_file>
sdf/inactives_sanitized.sdf

> <i_m_source_file_index>
312

> <i_lp_mmshare_version>
49012

> <i_f3d_flags>
0

> <s_epik_input>
W0NIMl0xW0NIMl1OKFtDSDNdKVtDSDJdW0NIMl1OMVtDSDJdW0NIMl1bQ0gyXVtOSF1DKD1PKUMoPU8pW0NASF0oW0NIMl1jMltjSF1bY0hdW2NIXVtjSF1bY0hdMilbTkhdQyg9TylbQ0BIXShbQ0gyXVtDSF0oW0NIM10pW0NIM10pW05IXUMoPU8pT1tDSDJdYzNbY0hdW2NIXVtjSF1bY0hdW2NIXTM=

> <s_epik_cmdline>
J2VwaWtfcHl0aG9uJywgJy1waHQnLCAnMC41JywgJy1waCcsICc3LjUnLCAnLW50JywgJy1tYScsICcyMDAnLCAnLWltYWUnLCAnPGluZmlsZS5tYWU+JywgJy1vbWFlJywgJzxvdXRmaWxlLm1hZT4n

> <r_lp_tautomer_probability>
0.99990000499975

> <r_epik_Ionization_Penalty>
  0.0801

> <r_epik_Ionization_Penalty_Charging>
  0.0799

> <r_epik_Ionization_Penalty_Neutral>
  0.0002

> <r_epik_State_Penalty>
  0.1679

> <r_epik_Charging_Adjusted_Penalty>
0.247806432544814

> <i_epik_Tot_Q>
1

> <i_epik_Tot_abs_Q>
1

> <s_epik_Chemistry_Notes>
This compound has an ester and may undergo hydrolysis at high or low pH.

> <s_lp_Force_Field>
OPLS3e

> <r_lp_Energy>
65.962526

> <b_lp_Chiralities_Consistent>
1

> <s_lp_Variant>
sdf/inactives_sanitized.sdf:312-1

$$$$
sdf/inactives_sanitized.sdf:313
                    3D
 Schrodinger Suite 2020-1.
 52 53  0  0  1  0            999 V2000
   -1.0006   -0.4982    0.9396 C   0  0  0  0  0  0
   -1.3169   -1.7954    0.7682 N   0  0  0  0  0  0
   -1.7837    2.0656   -0.8384 C   0  0  0  0  0  0
   -0.2633    0.1772   -0.2422 C   0  0  1  0  0  0
   -0.5590    1.6168   -0.3562 N   0  0  0  0  0  0
   -3.5547   -2.5683    1.5648 C   0  0  0  0  0  0
   -2.0181   -2.6428    1.7422 C   0  0  1  0  0  0
   -1.2387    0.1388    1.9678 O   0  0  0  0  0  0
   -2.7019    1.3630   -1.2697 O   0  0  0  0  0  0
   -4.1391   -1.7710    0.8296 O   0  0  0  0  0  0
   -1.8154    3.4095   -0.7568 O   0  0  0  0  0  0
    1.2713   -0.0172   -0.1003 C   0  0  0  0  0  0
   -3.7453   -4.9223    2.3098 O   0  0  0  0  0  0
   -1.5301   -4.1113    1.7587 C   0  0  0  0  0  0
   -4.2999   -3.6099    2.4102 C   0  0  0  0  0  0
   -2.9633    4.1369   -1.1758 C   0  0  0  0  0  0
   -2.7737    5.6083   -0.8581 C   0  0  0  0  0  0
   -2.3735   -5.0080    2.6896 C   0  0  0  0  0  0
    2.1119    0.4405   -1.3174 C   0  0  0  0  0  0
   -2.2023    6.4582   -1.8080 C   0  0  0  0  0  0
   -3.1708    6.1068    0.3850 C   0  0  0  0  0  0
    1.7540   -0.3321   -2.6055 C   0  0  0  0  0  0
    3.6221    0.3794   -1.0012 C   0  0  0  0  0  0
   -2.0295    7.8085   -1.5144 C   0  0  0  0  0  0
   -2.9972    7.4571    0.6778 C   0  0  0  0  0  0
   -2.4280    8.3017   -0.2733 C   0  0  0  0  0  0
   -1.0790   -2.2342   -0.1096 H   0  0  0  0  0  0
   -0.5812   -0.3183   -1.1628 H   0  0  0  0  0  0
    0.0880    2.2784    0.0470 H   0  0  0  0  0  0
   -1.8294   -2.2371    2.7393 H   0  0  0  0  0  0
    1.6135    0.5137    0.7909 H   0  0  0  0  0  0
    1.4963   -1.0695    0.0860 H   0  0  0  0  0  0
   -1.5572   -4.5214    0.7475 H   0  0  0  0  0  0
   -0.4853   -4.1480    2.0699 H   0  0  0  0  0  0
   -4.2861   -3.2825    3.4504 H   0  0  0  0  0  0
   -5.3430   -3.6391    2.0941 H   0  0  0  0  0  0
   -3.1265    4.0087   -2.2473 H   0  0  0  0  0  0
   -3.8601    3.7700   -0.6729 H   0  0  0  0  0  0
   -2.2507   -4.7149    3.7340 H   0  0  0  0  0  0
   -2.0489   -6.0462    2.6124 H   0  0  0  0  0  0
    1.8832    1.4914   -1.4988 H   0  0  0  0  0  0
   -1.8919    6.0748   -2.7692 H   0  0  0  0  0  0
   -3.6110    5.4507    1.1223 H   0  0  0  0  0  0
    1.2013   -1.2476   -2.3926 H   0  0  0  0  0  0
    2.6324   -0.6180   -3.1840 H   0  0  0  0  0  0
    1.1310    0.2801   -3.2583 H   0  0  0  0  0  0
    4.1482   -0.3666   -1.5969 H   0  0  0  0  0  0
    3.8123    0.1341    0.0440 H   0  0  0  0  0  0
    4.0965    1.3418   -1.1945 H   0  0  0  0  0  0
   -1.5885    8.4707   -2.2449 H   0  0  0  0  0  0
   -3.3021    7.8475    1.6376 H   0  0  0  0  0  0
   -2.2940    9.3491   -0.0461 H   0  0  0  0  0  0
  1  2  1  0  0  0
  1  4  1  0  0  0
  1  8  2  0  0  0
  2  7  1  0  0  0
  2 27  1  0  0  0
  3  5  1  0  0  0
  3  9  2  0  0  0
  3 11  1  0  0  0
  4  5  1  0  0  0
  4 12  1  0  0  0
  4 28  1  0  0  0
  5 29  1  0  0  0
  6  7  1  0  0  0
  6 10  2  0  0  0
  6 15  1  0  0  0
  7 14  1  0  0  0
  7 30  1  0  0  0
 11 16  1  0  0  0
 12 19  1  0  0  0
 12 31  1  0  0  0
 12 32  1  0  0  0
 13 18  1  0  0  0
 13 15  1  0  0  0
 14 18  1  0  0  0
 14 33  1  0  0  0
 14 34  1  0  0  0
 15 35  1  0  0  0
 15 36  1  0  0  0
 16 17  1  0  0  0
 16 37  1  0  0  0
 16 38  1  0  0  0
 17 20  2  0  0  0
 17 21  1  0  0  0
 18 39  1  0  0  0
 18 40  1  0  0  0
 19 22  1  0  0  0
 19 23  1  0  0  0
 19 41  1  0  0  0
 20 24  1  0  0  0
 20 42  1  0  0  0
 21 25  2  0  0  0
 21 43  1  0  0  0
 22 44  1  0  0  0
 22 45  1  0  0  0
 22 46  1  0  0  0
 23 47  1  0  0  0
 23 48  1  0  0  0
 23 49  1  0  0  0
 24 26  2  0  0  0
 24 50  1  0  0  0
 25 26  1  0  0  0
 25 51  1  0  0  0
 26 52  1  0  0  0
M  END
> <chembl_id>
CHEMBL162631

> <chembl_pref_name>
None

> <i_m_ct_stereo_status>
1

> <s_m_source_file>
sdf/inactives_sanitized.sdf

> <i_m_source_file_index>
313

> <i_lp_mmshare_version>
49012

> <i_f3d_flags>
0

> <s_epik_input>
W0NIMl0xT1tDSDJdW0NIMl1bQ0BIXShDMT1PKVtOSF1DKD1PKVtDQEhdKFtDSDJdW0NIXShbQ0gzXSlbQ0gzXSlbTkhdQyg9TylPW0NIMl1jMltjSF1bY0hdW2NIXVtjSF1bY0hdMg==

> <s_epik_cmdline>
J2VwaWtfcHl0aG9uJywgJy1waHQnLCAnMC41JywgJy1waCcsICc3LjUnLCAnLW50JywgJy1tYScsICcyMDAnLCAnLWltYWUnLCAnPGluZmlsZS5tYWU+JywgJy1vbWFlJywgJzxvdXRmaWxlLm1hZT4n

> <r_lp_tautomer_probability>
1

> <r_epik_Ionization_Penalty>
  0.0000

> <r_epik_Ionization_Penalty_Charging>
  0.0000

> <r_epik_Ionization_Penalty_Neutral>
  0.0000

> <r_epik_State_Penalty>
 -0.0000

> <r_epik_Charging_Adjusted_Penalty>
0

> <i_epik_Tot_Q>
0

> <i_epik_Tot_abs_Q>
0

> <s_epik_Chemistry_Notes>
This compound has an ester and may undergo hydrolysis at high or low pH.

> <s_lp_Force_Field>
OPLS3e

> <r_lp_Energy>
22.672867

> <b_lp_Chiralities_Consistent>
1

> <s_lp_Variant>
sdf/inactives_sanitized.sdf:313-1

$$$$
sdf/inactives_sanitized.sdf:314
                    3D
 Schrodinger Suite 2020-1.
 96 99  0  0  1  0            999 V2000
   -0.4888    1.9943   -0.0851 N   0  0  0  0  0  0
   -0.1452    0.7001    0.1594 C   0  0  0  0  0  0
   -1.8600    2.4994    0.1047 C   0  0  2  0  0  0
   -2.6420    2.4993   -1.2311 C   0  0  0  0  0  0
    2.7376    0.9107    2.0523 C   0  0  0  0  0  0
    3.0881    0.5511    3.5139 C   0  0  1  0  0  0
   -4.9647    1.8311   -3.2014 C   0  0  0  0  0  0
   -6.0620    1.9744   -2.0559 C   0  0  0  0  0  0
    4.5217    0.2674    3.6506 N   0  0  0  0  0  0
    1.8207    0.1295    1.4577 N   0  0  0  0  0  0
    1.3463    0.2612    0.0759 C   0  0  1  0  0  0
    5.1645   -0.8135    3.1672 C   0  0  0  0  0  0
    0.4422    3.1226   -0.2049 C   0  0  0  0  0  0
   -3.0313    1.2879   -1.6844 N   0  0  0  0  0  0
    6.6540   -0.8469    3.4023 C   0  0  0  0  0  0
   -1.6836    3.8801    0.7840 C   0  0  2  0  0  0
   -7.0474    2.8254   -2.3965 N   0  0  0  0  0  0
   -3.7535    0.9293   -2.9260 C   0  0  1  0  0  0
   -0.1977    4.2378    0.6357 C   0  0  1  0  0  0
   -8.1254    3.2358   -1.5036 C   0  0  0  0  0  0
    1.6370   -1.0352   -0.7793 C   0  0  0  0  0  0
    7.2493   -2.0726    3.4687 N   0  0  0  0  0  0
   -0.9873   -0.1618    0.4210 O   0  0  0  0  0  0
   -2.8872    3.5514   -1.8229 O   0  0  0  0  0  0
   -9.1220    2.2043   -1.0177 C   0  0  0  0  0  0
   -9.5390    3.2375   -2.0364 C   0  0  0  0  0  0
   -5.1132    2.4052   -4.2837 O   0  0  0  0  0  0
    3.2852    1.8740    1.5140 O   0  0  0  0  0  0
   -5.9791    1.3560   -0.9932 O   0  0  0  0  0  0
    4.5945   -1.7313    2.5724 O   0  0  0  0  0  0
    8.7655    0.2813    3.7235 N   0  0  0  0  0  0
    2.5989    1.6371    4.5149 C   0  0  2  0  0  0
    7.4217    0.3244    3.5253 C   0  0  0  0  0  0
   -1.9627    3.8521    2.2996 C   0  0  0  0  0  0
    3.4357    2.7865    4.3592 O   0  0  0  0  0  0
    0.3684    4.3362    2.0669 C   0  0  0  0  0  0
   -0.6103    3.5571    2.9438 C   0  0  0  0  0  0
   -4.1726   -0.5667   -2.9505 C   0  0  0  0  0  0
    8.5928   -2.1143    3.6663 C   0  0  0  0  0  0
    3.1724   -1.1633   -0.9713 C   0  0  0  0  0  0
    1.0174   -0.9275   -2.1968 C   0  0  0  0  0  0
    1.1553   -2.3529   -0.1112 C   0  0  0  0  0  0
    9.3451   -0.9450    3.7944 C   0  0  0  0  0  0
    2.6453    1.1348    5.9747 C   0  0  0  0  0  0
    2.9441    3.9919    4.9312 C   0  0  0  0  0  0
   -3.0133   -1.5808   -2.8451 C   0  0  0  0  0  0
   -2.0617   -1.5764   -4.0515 C   0  0  0  0  0  0
   -2.4524    1.8251    0.7262 H   0  0  0  0  0  0
    2.5585   -0.3705    3.7688 H   0  0  0  0  0  0
    5.0544    0.9788    4.1295 H   0  0  0  0  0  0
    1.4204   -0.6371    1.9787 H   0  0  0  0  0  0
    1.9064    1.0439   -0.4319 H   0  0  0  0  0  0
    1.4793    2.9631    0.0809 H   0  0  0  0  0  0
    0.4224    3.4654   -1.2403 H   0  0  0  0  0  0
   -2.6562    0.4902   -1.1905 H   0  0  0  0  0  0
   -2.3079    4.6550    0.3354 H   0  0  0  0  0  0
   -6.9736    3.3170   -3.2758 H   0  0  0  0  0  0
   -3.0339    1.0767   -3.7327 H   0  0  0  0  0  0
   -0.0903    5.1939    0.1203 H   0  0  0  0  0  0
   -7.8353    4.0235   -0.8070 H   0  0  0  0  0  0
   -8.9995    1.1672   -1.3318 H   0  0  0  0  0  0
   -9.4896    2.2864    0.0051 H   0  0  0  0  0  0
  -10.2038    4.0458   -1.7313 H   0  0  0  0  0  0
   -9.7120    2.9259   -3.0671 H   0  0  0  0  0  0
    1.5651    1.8965    4.2752 H   0  0  0  0  0  0
    6.9822    1.3096    3.4597 H   0  0  0  0  0  0
   -2.3394    4.8210    2.6319 H   0  0  0  0  0  0
   -2.7078    3.1065    2.5804 H   0  0  0  0  0  0
    1.3790    3.9346    2.1507 H   0  0  0  0  0  0
    0.4130    5.3801    2.3816 H   0  0  0  0  0  0
   -0.3937    2.4884    2.8980 H   0  0  0  0  0  0
   -0.5692    3.8619    3.9901 H   0  0  0  0  0  0
   -4.8571   -0.7693   -2.1251 H   0  0  0  0  0  0
   -4.7360   -0.7861   -3.8599 H   0  0  0  0  0  0
    9.0543   -3.0892    3.7196 H   0  0  0  0  0  0
    3.4315   -2.0450   -1.5594 H   0  0  0  0  0  0
    3.6986   -1.2563   -0.0208 H   0  0  0  0  0  0
    3.5898   -0.3017   -1.4947 H   0  0  0  0  0  0
    1.4394   -0.0939   -2.7597 H   0  0  0  0  0  0
   -0.0619   -0.7885   -2.1607 H   0  0  0  0  0  0
    1.1961   -1.8304   -2.7824 H   0  0  0  0  0  0
    1.3806   -3.2168   -0.7381 H   0  0  0  0  0  0
    0.0796   -2.3735    0.0547 H   0  0  0  0  0  0
    1.6461   -2.5287    0.8468 H   0  0  0  0  0  0
   10.4131   -0.9777    3.9516 H   0  0  0  0  0  0
    2.0803    0.2093    6.0896 H   0  0  0  0  0  0
    2.2111    1.8577    6.6647 H   0  0  0  0  0  0
    3.6687    0.9408    6.2975 H   0  0  0  0  0  0
    3.6026    4.8151    4.6548 H   0  0  0  0  0  0
    2.9204    3.9434    6.0197 H   0  0  0  0  0  0
    1.9440    4.2331    4.5706 H   0  0  0  0  0  0
   -2.4492   -1.4152   -1.9264 H   0  0  0  0  0  0
   -3.4375   -2.5813   -2.7498 H   0  0  0  0  0  0
   -1.3102   -2.3601   -3.9532 H   0  0  0  0  0  0
   -1.5321   -0.6286   -4.1462 H   0  0  0  0  0  0
   -2.6020   -1.7534   -4.9818 H   0  0  0  0  0  0
  1  2  1  0  0  0
  1  3  1  0  0  0
  1 13  1  0  0  0
  2 11  1  0  0  0
  2 23  2  0  0  0
  3  4  1  0  0  0
  3 16  1  0  0  0
  3 48  1  0  0  0
  4 14  1  0  0  0
  4 24  2  0  0  0
  5 10  1  0  0  0
  5  6  1  0  0  0
  5 28  2  0  0  0
  6  9  1  0  0  0
  6 32  1  0  0  0
  6 49  1  0  0  0
  7 18  1  0  0  0
  7  8  1  0  0  0
  7 27  2  0  0  0
  8 17  1  0  0  0
  8 29  2  0  0  0
  9 12  1  0  0  0
  9 50  1  0  0  0
 10 11  1  0  0  0
 10 51  1  0  0  0
 11 21  1  0  0  0
 11 52  1  0  0  0
 12 15  1  0  0  0
 12 30  2  0  0  0
 13 19  1  0  0  0
 13 53  1  0  0  0
 13 54  1  0  0  0
 14 18  1  0  0  0
 14 55  1  0  0  0
 15 22  2  0  0  0
 15 33  1  0  0  0
 16 34  1  0  0  0
 16 19  1  0  0  0
 16 56  1  0  0  0
 17 20  1  0  0  0
 17 57  1  0  0  0
 18 38  1  0  0  0
 18 58  1  0  0  0
 19 36  1  0  0  0
 19 59  1  0  0  0
 20 25  1  0  0  0
 20 26  1  0  0  0
 20 60  1  0  0  0
 21 40  1  0  0  0
 21 41  1  0  0  0
 21 42  1  0  0  0
 22 39  1  0  0  0
 25 26  1  0  0  0
 25 61  1  0  0  0
 25 62  1  0  0  0
 26 63  1  0  0  0
 26 64  1  0  0  0
 31 33  2  0  0  0
 31 43  1  0  0  0
 32 35  1  0  0  0
 32 44  1  0  0  0
 32 65  1  0  0  0
 33 66  1  0  0  0
 34 37  1  0  0  0
 34 67  1  0  0  0
 34 68  1  0  0  0
 35 45  1  0  0  0
 36 37  1  0  0  0
 36 69  1  0  0  0
 36 70  1  0  0  0
 37 71  1  0  0  0
 37 72  1  0  0  0
 38 46  1  0  0  0
 38 73  1  0  0  0
 38 74  1  0  0  0
 39 43  2  0  0  0
 39 75  1  0  0  0
 40 76  1  0  0  0
 40 77  1  0  0  0
 40 78  1  0  0  0
 41 79  1  0  0  0
 41 80  1  0  0  0
 41 81  1  0  0  0
 42 82  1  0  0  0
 42 83  1  0  0  0
 42 84  1  0  0  0
 43 85  1  0  0  0
 44 86  1  0  0  0
 44 87  1  0  0  0
 44 88  1  0  0  0
 45 89  1  0  0  0
 45 90  1  0  0  0
 45 91  1  0  0  0
 46 47  1  0  0  0
 46 92  1  0  0  0
 46 93  1  0  0  0
 47 94  1  0  0  0
 47 95  1  0  0  0
 47 96  1  0  0  0
M  END
> <chembl_id>
CHEMBL2371796

> <chembl_pref_name>
None

> <i_m_ct_stereo_status>
1

> <s_m_source_file>
sdf/inactives_sanitized.sdf

> <i_m_source_file_index>
314

> <i_lp_mmshare_version>
49012

> <i_f3d_flags>
0

> <s_epik_input>
W0NIMl0xW0NIMl1bQ0hdMVtOSF1DKD1PKUMoPU8pW0NASF0oW0NIMl1bQ0gyXVtDSDNdKVtOSF1DKD1PKVtDQEhdMk4oW0NIMl1bQ0BASF0oW0NAQEhdMjMpW0NIMl1bQ0gyXVtDSDJdMylDKD1PKVtDQEhdKEMoW0NIM10pKFtDSDNdKVtDSDNdKVtOSF1DKD1PKVtDQEhdKFtDQEBIXShbQ0gzXSlPW0NIM10pW05IXUMoPU8pYzRuW2NIXVtjSF1uW2NIXTQ=

> <s_epik_cmdline>
J2VwaWtfcHl0aG9uJywgJy1waHQnLCAnMC41JywgJy1waCcsICc3LjUnLCAnLW50JywgJy1tYScsICcyMDAnLCAnLWltYWUnLCAnPGluZmlsZS5tYWU+JywgJy1vbWFlJywgJzxvdXRmaWxlLm1hZT4n

> <r_lp_tautomer_probability>
1

> <r_epik_Ionization_Penalty>
  0.0000

> <r_epik_Ionization_Penalty_Charging>
  0.0000

> <r_epik_Ionization_Penalty_Neutral>
  0.0000

> <r_epik_State_Penalty>
 -0.0000

> <r_epik_Charging_Adjusted_Penalty>
0

> <i_epik_Tot_Q>
0

> <i_epik_Tot_abs_Q>
0

> <s_lp_Force_Field>
OPLS3e

> <r_lp_Energy>
45.6214

> <b_lp_Chiralities_Consistent>
1

> <s_lp_Variant>
sdf/inactives_sanitized.sdf:314-1

$$$$
sdf/inactives_sanitized.sdf:315
                    3D
 Schrodinger Suite 2020-1.
 75 76  0  0  1  0            999 V2000
    0.1230    0.0701    0.0209 C   0  0  0  0  0  0
   -0.4326    1.2602   -0.2668 N   0  0  0  0  0  0
    2.3184   -0.1336    2.3271 C   0  0  0  0  0  0
    1.6665    0.0056   -0.0777 C   0  0  1  0  0  0
    2.2568   -0.7141    1.0639 N   0  0  0  0  0  0
   -2.3558    1.9349   -1.5639 C   0  0  0  0  0  0
   -1.8631    1.5826   -0.1660 C   0  0  2  0  0  0
   -0.5150   -0.9379    0.3297 O   0  0  0  0  0  0
   -2.3379    3.5273   -3.8744 S   0  0  0  0  0  0
   -1.4335    2.7837   -2.4688 C   0  0  0  0  0  0
    1.9660    1.0115    2.6233 O   0  0  0  0  0  0
    2.8236   -1.0307    3.1942 O   0  0  0  0  0  0
   -3.4865    1.6091   -1.9297 O   0  0  0  0  0  0
    2.1294   -0.7097   -1.3772 C   0  0  0  0  0  0
    4.6115   -2.5706    7.4485 N   0  0  0  0  0  0
   -2.9376    5.1446   -3.2595 C   0  0  0  0  0  0
   -2.1330    2.7528    0.8157 C   0  0  0  0  0  0
    3.5825   -1.8535    5.3718 C   0  0  0  0  0  0
    2.9775   -0.7044    4.5728 C   0  0  0  0  0  0
   -1.6930    2.4878    2.2743 C   0  0  0  0  0  0
   -2.3979    1.3066    2.9317 C   0  0  0  0  0  0
    4.0506   -1.6119    6.6677 C   0  0  0  0  0  0
    1.8005    0.0224   -2.7021 C   0  0  0  0  0  0
    4.7187   -3.8221    6.9346 C   0  0  0  0  0  0
   -3.7643    5.7940   -4.3895 C   0  0  0  0  0  0
   -1.7545    6.0779   -2.9220 C   0  0  0  0  0  0
   -3.8444    4.9973   -2.0190 C   0  0  0  0  0  0
    3.7055   -3.1556    4.8641 C   0  0  0  0  0  0
   -1.6773    0.1540    3.2573 C   0  0  0  0  0  0
   -3.7666    1.3758    3.2074 C   0  0  0  0  0  0
    2.1544   -0.8560   -3.9215 C   0  0  0  0  0  0
    2.4508    1.4208   -2.7817 C   0  0  0  0  0  0
    4.2795   -4.1550    5.6526 C   0  0  0  0  0  0
   -4.4132    0.2924    3.7967 C   0  0  0  0  0  0
   -2.3238   -0.9295    3.8451 C   0  0  0  0  0  0
   -3.6894   -0.8558    4.1113 C   0  0  0  0  0  0
    0.1745    2.0390   -0.4775 H   0  0  0  0  0  0
    2.0880    1.0138   -0.0802 H   0  0  0  0  0  0
    2.4871   -1.6910    0.9551 H   0  0  0  0  0  0
   -2.4321    0.7182    0.1860 H   0  0  0  0  0  0
   -0.6596    2.1326   -2.8734 H   0  0  0  0  0  0
   -0.9322    3.5544   -1.8863 H   0  0  0  0  0  0
    3.2105   -0.8587   -1.3421 H   0  0  0  0  0  0
    1.6963   -1.7120   -1.4072 H   0  0  0  0  0  0
   -1.6357    3.6623    0.4731 H   0  0  0  0  0  0
   -3.2034    2.9688    0.8157 H   0  0  0  0  0  0
    2.0108   -0.4450    5.0077 H   0  0  0  0  0  0
    3.6258    0.1684    4.6692 H   0  0  0  0  0  0
   -0.6115    2.3483    2.3181 H   0  0  0  0  0  0
   -1.8872    3.3762    2.8770 H   0  0  0  0  0  0
    3.9816   -0.6262    7.1049 H   0  0  0  0  0  0
    0.7201    0.1648   -2.7416 H   0  0  0  0  0  0
    5.1687   -4.5677    7.5733 H   0  0  0  0  0  0
   -4.1466    6.7733   -4.0975 H   0  0  0  0  0  0
   -4.6249    5.1803   -4.6600 H   0  0  0  0  0  0
   -3.1680    5.9381   -5.2917 H   0  0  0  0  0  0
   -1.0792    6.1899   -3.7714 H   0  0  0  0  0  0
   -1.1673    5.7091   -2.0815 H   0  0  0  0  0  0
   -2.1000    7.0761   -2.6491 H   0  0  0  0  0  0
   -4.2842    5.9525   -1.7290 H   0  0  0  0  0  0
   -3.2908    4.6348   -1.1542 H   0  0  0  0  0  0
   -4.6656    4.3034   -2.2027 H   0  0  0  0  0  0
    3.3607   -3.4018    3.8705 H   0  0  0  0  0  0
   -0.6194    0.0912    3.0500 H   0  0  0  0  0  0
   -4.3295    2.2644    2.9615 H   0  0  0  0  0  0
    2.9702   -0.4439   -4.5155 H   0  0  0  0  0  0
    1.2939   -0.9629   -4.5827 H   0  0  0  0  0  0
    2.4585   -1.8614   -3.6283 H   0  0  0  0  0  0
    3.2559    1.5381   -2.0559 H   0  0  0  0  0  0
    1.7156    2.1998   -2.5799 H   0  0  0  0  0  0
    2.8741    1.6334   -3.7633 H   0  0  0  0  0  0
    4.3815   -5.1631    5.2782 H   0  0  0  0  0  0
   -5.4712    0.3414    4.0077 H   0  0  0  0  0  0
   -1.7693   -1.8227    4.0922 H   0  0  0  0  0  0
   -4.1912   -1.6969    4.5665 H   0  0  0  0  0  0
  1  2  1  0  0  0
  1  4  1  0  0  0
  1  8  2  0  0  0
  2  7  1  0  0  0
  2 37  1  0  0  0
  3  5  1  0  0  0
  3 11  2  0  0  0
  3 12  1  0  0  0
  4  5  1  0  0  0
  4 14  1  0  0  0
  4 38  1  0  0  0
  5 39  1  0  0  0
  6  7  1  0  0  0
  6 10  1  0  0  0
  6 13  2  0  0  0
  7 17  1  0  0  0
  7 40  1  0  0  0
  9 10  1  0  0  0
  9 16  1  0  0  0
 10 41  1  0  0  0
 10 42  1  0  0  0
 12 19  1  0  0  0
 14 23  1  0  0  0
 14 43  1  0  0  0
 14 44  1  0  0  0
 15 22  2  0  0  0
 15 24  1  0  0  0
 16 25  1  0  0  0
 16 26  1  0  0  0
 16 27  1  0  0  0
 17 20  1  0  0  0
 17 45  1  0  0  0
 17 46  1  0  0  0
 18 19  1  0  0  0
 18 22  1  0  0  0
 18 28  2  0  0  0
 19 47  1  0  0  0
 19 48  1  0  0  0
 20 21  1  0  0  0
 20 49  1  0  0  0
 20 50  1  0  0  0
 21 29  2  0  0  0
 21 30  1  0  0  0
 22 51  1  0  0  0
 23 31  1  0  0  0
 23 32  1  0  0  0
 23 52  1  0  0  0
 24 33  2  0  0  0
 24 53  1  0  0  0
 25 54  1  0  0  0
 25 55  1  0  0  0
 25 56  1  0  0  0
 26 57  1  0  0  0
 26 58  1  0  0  0
 26 59  1  0  0  0
 27 60  1  0  0  0
 27 61  1  0  0  0
 27 62  1  0  0  0
 28 33  1  0  0  0
 28 63  1  0  0  0
 29 35  1  0  0  0
 29 64  1  0  0  0
 30 34  2  0  0  0
 30 65  1  0  0  0
 31 66  1  0  0  0
 31 67  1  0  0  0
 31 68  1  0  0  0
 32 69  1  0  0  0
 32 70  1  0  0  0
 32 71  1  0  0  0
 33 72  1  0  0  0
 34 36  1  0  0  0
 34 73  1  0  0  0
 35 36  2  0  0  0
 35 74  1  0  0  0
 36 75  1  0  0  0
M  END
> <chembl_id>
CHEMBL352168

> <chembl_pref_name>
None

> <i_m_ct_stereo_status>
1

> <s_m_source_file>
sdf/inactives_sanitized.sdf

> <i_m_source_file_index>
315

> <i_lp_mmshare_version>
49012

> <i_f3d_flags>
0

> <s_epik_input>
W2NIXTFbY0hdW2NIXVtjSF1bY0hdYzFbQ0gyXVtDSDJdW0NAQEhdKEMoPU8pW0NIMl1TQyhbQ0gzXSkoW0NIM10pW0NIM10pW05IXUMoPU8pW0NASF0oW0NIMl1bQ0hdKFtDSDNdKVtDSDNdKVtOSF1DKD1PKU9bQ0gyXWMyW2NIXW5bY0hdW2NIXVtjSF0y

> <s_epik_cmdline>
J2VwaWtfcHl0aG9uJywgJy1waHQnLCAnMC41JywgJy1waCcsICc3LjUnLCAnLW50JywgJy1tYScsICcyMDAnLCAnLWltYWUnLCAnPGluZmlsZS5tYWU+JywgJy1vbWFlJywgJzxvdXRmaWxlLm1hZT4n

> <r_lp_tautomer_probability>
1

> <r_epik_Ionization_Penalty>
  0.0015

> <r_epik_Ionization_Penalty_Charging>
  0.0000

> <r_epik_Ionization_Penalty_Neutral>
  0.0015

> <r_epik_State_Penalty>
 -0.0000

> <r_epik_Charging_Adjusted_Penalty>
0

> <i_epik_Tot_Q>
0

> <i_epik_Tot_abs_Q>
0

> <s_epik_Chemistry_Notes>
This compound has an ester and may undergo hydrolysis at high or low pH.

> <s_lp_Force_Field>
OPLS3e

> <r_lp_Energy>
39.038601

> <b_lp_Chiralities_Consistent>
1

> <s_lp_Variant>
sdf/inactives_sanitized.sdf:315-1

$$$$
sdf/inactives_sanitized.sdf:316
                    3D
 Schrodinger Suite 2020-1.
 68 71  0  0  1  0            999 V2000
   -2.0026    1.1113   -0.0588 C   0  0  0  0  0  0
   -2.6539   -0.1309   -0.0477 C   0  0  0  0  0  0
   -1.9338   -1.3212   -0.1233 C   0  0  0  0  0  0
   -0.5449   -1.2908   -0.2094 C   0  0  0  0  0  0
    0.1379   -0.0680   -0.2198 C   0  0  0  0  0  0
   -0.6019    1.1194   -0.1481 C   0  0  0  0  0  0
    1.6693   -0.0107   -0.3197 C   0  0  2  0  0  0
    2.1286   -0.4343   -1.7327 C   0  0  0  0  0  0
    2.3649   -0.8148    0.8182 C   0  0  0  0  0  0
    3.9163   -0.7569    0.8655 C   0  0  0  0  0  0
    4.4631   -1.6571    1.9888 C   0  0  0  0  0  0
    4.4640    0.6774    1.0035 C   0  0  0  0  0  0
    2.1093   -1.6207   -2.0652 O   0  0  0  0  0  0
    2.5413    0.5464   -2.5544 N   0  0  0  0  0  0
    3.0567    0.3322   -3.9037 C   0  0  0  0  0  0
    4.3363   -0.3986   -3.9152 C   0  0  0  0  0  0
    5.3413   -0.9717   -3.9238 N   0  0  0  0  0  0
   -2.7773    2.3879    0.0224 C   0  0  0  0  0  0
   -2.3364    3.5441   -0.6357 C   0  0  0  0  0  0
   -3.0593    4.7320   -0.5598 C   0  0  0  0  0  0
   -4.2389    4.7851    0.1779 C   0  0  0  0  0  0
   -4.7127    3.6524    0.8513 C   0  0  0  0  0  0
   -3.9684    2.4651    0.7608 C   0  0  0  0  0  0
   -5.9871    3.7206    1.6480 C   0  0  0  0  0  0
   -6.5223    2.6179    2.1533 N   0  0  0  0  0  0
   -7.6279    2.8211    2.8321 C   0  0  0  0  0  0
   -8.1200    4.4876    2.8864 S   0  0  0  0  0  0
   -6.7185    4.8771    1.9396 C   0  0  0  0  0  0
   -8.3720    1.8375    3.4394 N   0  0  0  0  0  0
   -9.4860    2.0860    4.3743 C   0  0  0  0  0  0
  -10.5795    0.9938    4.3359 C   0  0  0  0  0  0
   -9.9956   -0.3225    4.5924 N   0  0  0  0  0  0
   -9.0177   -0.6040    3.5420 C   0  0  0  0  0  0
   -7.8880    0.4501    3.5661 C   0  0  0  0  0  0
  -11.0383   -1.3432    4.5947 C   0  0  0  0  0  0
   -3.7312   -0.1848    0.0082 H   0  0  0  0  0  0
   -2.4532   -2.2681   -0.1190 H   0  0  0  0  0  0
   -0.0019   -2.2225   -0.2732 H   0  0  0  0  0  0
   -0.0752    2.0626   -0.1488 H   0  0  0  0  0  0
    1.9509    1.0339   -0.1755 H   0  0  0  0  0  0
    1.9803   -0.4580    1.7756 H   0  0  0  0  0  0
    2.0649   -1.8624    0.7569 H   0  0  0  0  0  0
    4.3011   -1.1617   -0.0718 H   0  0  0  0  0  0
    4.1322   -1.3166    2.9709 H   0  0  0  0  0  0
    5.5537   -1.6678    1.9925 H   0  0  0  0  0  0
    4.1306   -2.6886    1.8666 H   0  0  0  0  0  0
    4.0743    1.1695    1.8954 H   0  0  0  0  0  0
    4.2061    1.2925    0.1417 H   0  0  0  0  0  0
    5.5524    0.6782    1.0745 H   0  0  0  0  0  0
    2.5752    1.4924   -2.2038 H   0  0  0  0  0  0
    2.3329   -0.2101   -4.5141 H   0  0  0  0  0  0
    3.2174    1.2994   -4.3798 H   0  0  0  0  0  0
   -1.4310    3.5294   -1.2245 H   0  0  0  0  0  0
   -2.7065    5.6125   -1.0767 H   0  0  0  0  0  0
   -4.7798    5.7186    0.2151 H   0  0  0  0  0  0
   -4.3150    1.5872    1.2860 H   0  0  0  0  0  0
   -6.5133    5.8993    1.6592 H   0  0  0  0  0  0
   -9.0756    2.1748    5.3814 H   0  0  0  0  0  0
   -9.9529    3.0497    4.1764 H   0  0  0  0  0  0
  -11.3298    1.2120    5.0974 H   0  0  0  0  0  0
  -11.0950    1.0107    3.3731 H   0  0  0  0  0  0
   -8.5864   -1.5931    3.7032 H   0  0  0  0  0  0
   -9.4943   -0.6244    2.5596 H   0  0  0  0  0  0
   -7.1753    0.2234    2.7725 H   0  0  0  0  0  0
   -7.3123    0.3688    4.4892 H   0  0  0  0  0  0
  -10.6114   -2.3275    4.7920 H   0  0  0  0  0  0
  -11.5654   -1.3862    3.6399 H   0  0  0  0  0  0
  -11.7706   -1.1416    5.3775 H   0  0  0  0  0  0
  1 18  1  0  0  0
  1  6  2  0  0  0
  1  2  1  0  0  0
  2  3  2  0  0  0
  2 36  1  0  0  0
  3  4  1  0  0  0
  3 37  1  0  0  0
  4  5  2  0  0  0
  4 38  1  0  0  0
  5  6  1  0  0  0
  5  7  1  0  0  0
  6 39  1  0  0  0
  7  9  1  0  0  0
  7  8  1  0  0  0
  7 40  1  0  0  0
  8 13  2  0  0  0
  8 14  1  0  0  0
  9 10  1  0  0  0
  9 41  1  0  0  0
  9 42  1  0  0  0
 10 11  1  0  0  0
 10 12  1  0  0  0
 10 43  1  0  0  0
 11 44  1  0  0  0
 11 45  1  0  0  0
 11 46  1  0  0  0
 12 47  1  0  0  0
 12 48  1  0  0  0
 12 49  1  0  0  0
 14 15  1  0  0  0
 14 50  1  0  0  0
 15 16  1  0  0  0
 15 51  1  0  0  0
 15 52  1  0  0  0
 16 17  3  0  0  0
 18 19  2  0  0  0
 18 23  1  0  0  0
 19 20  1  0  0  0
 19 53  1  0  0  0
 20 21  2  0  0  0
 20 54  1  0  0  0
 21 22  1  0  0  0
 21 55  1  0  0  0
 22 23  2  0  0  0
 22 24  1  0  0  0
 23 56  1  0  0  0
 24 25  1  0  0  0
 24 28  2  0  0  0
 25 26  2  0  0  0
 26 27  1  0  0  0
 26 29  1  0  0  0
 27 28  1  0  0  0
 28 57  1  0  0  0
 29 30  1  0  0  0
 29 34  1  0  0  0
 30 31  1  0  0  0
 30 58  1  0  0  0
 30 59  1  0  0  0
 31 32  1  0  0  0
 31 60  1  0  0  0
 31 61  1  0  0  0
 32 33  1  0  0  0
 32 35  1  0  0  0
 33 34  1  0  0  0
 33 62  1  0  0  0
 33 63  1  0  0  0
 34 64  1  0  0  0
 34 65  1  0  0  0
 35 66  1  0  0  0
 35 67  1  0  0  0
 35 68  1  0  0  0
M  END
> <chembl_id>
CHEMBL213930

> <chembl_pref_name>
None

> <s_m_source_file>
sdf/inactives_sanitized.sdf

> <i_m_source_file_index>
316

> <i_lp_mmshare_version>
49012

> <i_m_ct_stereo_status>
1

> <i_f3d_flags>
0

> <s_epik_input>
TiNDW0NIMl1bTkhdQyg9TylbQ0BIXShbQ0gyXVtDSF0oW0NIM10pW0NIM10pYyhbY0hdMSlbY0hdW2NIXVtjSF1jMS1jMltjSF1bY0hdW2NIXWMoW2NIXTIpLWMzbmMoc1tjSF0zKU40W0NIMl1bQ0gyXU4oW0NIM10pW0NIMl1bQ0gyXTQ=

> <s_epik_cmdline>
J2VwaWtfcHl0aG9uJywgJy1waHQnLCAnMC41JywgJy1waCcsICc3LjUnLCAnLW50JywgJy1tYScsICcyMDAnLCAnLWltYWUnLCAnPGluZmlsZS5tYWU+JywgJy1vbWFlJywgJzxvdXRmaWxlLm1hZT4n

> <r_epik_Ionization_Penalty>
  0.3345

> <r_epik_Ionization_Penalty_Charging>
  0.0000

> <r_epik_Ionization_Penalty_Neutral>
  0.3345

> <r_epik_State_Penalty>
  0.3175

> <r_epik_Charging_Adjusted_Penalty>
0.317496888978783

> <i_epik_Tot_Q>
0

> <i_epik_Tot_abs_Q>
0

> <s_lp_Force_Field>
OPLS3e

> <r_lp_Energy>
56.744807

> <b_lp_Chiralities_Consistent>
1

> <s_lp_Variant>
sdf/inactives_sanitized.sdf:316-1

$$$$
sdf/inactives_sanitized.sdf:316
                    3D
 Schrodinger Suite 2020-1.
 69 72  0  0  1  0            999 V2000
   -1.9096    1.2196    0.0669 C   0  0  0  0  0  0
   -2.6270    0.0268    0.2448 C   0  0  0  0  0  0
   -1.9725   -1.1994    0.3451 C   0  0  0  0  0  0
   -0.5837   -1.2556    0.2758 C   0  0  0  0  0  0
    0.1630   -0.0839    0.1058 C   0  0  0  0  0  0
   -0.5101    1.1386   -0.0072 C   0  0  0  0  0  0
    1.6964   -0.1207    0.0412 C   0  0  2  0  0  0
    2.1590   -0.7180   -1.3060 C   0  0  0  0  0  0
    2.3499   -0.8436    1.2558 C   0  0  0  0  0  0
    1.9402   -0.3208    2.6583 C   0  0  0  0  0  0
    2.2962    1.1631    2.8757 C   0  0  0  0  0  0
    2.5477   -1.1956    3.7701 C   0  0  0  0  0  0
    2.1017   -1.9330   -1.5033 O   0  0  0  0  0  0
    2.6027    0.1493   -2.2330 N   0  0  0  0  0  0
    3.1015   -0.2299   -3.5523 C   0  0  0  0  0  0
    4.3565   -1.0001   -3.4911 C   0  0  0  0  0  0
    5.3422   -1.6043   -3.4432 N   0  0  0  0  0  0
   -2.6121    2.5376   -0.0318 C   0  0  0  0  0  0
   -2.0055    3.7142    0.4307 C   0  0  0  0  0  0
   -2.6577    4.9410    0.3436 C   0  0  0  0  0  0
   -3.9345    5.0132   -0.2052 C   0  0  0  0  0  0
   -4.5776    3.8605   -0.6770 C   0  0  0  0  0  0
   -3.8996    2.6358   -0.5840 C   0  0  0  0  0  0
   -5.9612    3.9234   -1.2641 C   0  0  0  0  0  0
   -6.6665    5.0441   -1.1971 N   0  0  0  0  0  0
   -7.8605    4.9548   -1.7361 C   0  0  0  0  0  0
   -8.2111    3.3979   -2.4220 S   0  0  0  0  0  0
   -6.6352    2.8807   -1.9100 C   0  0  0  0  0  0
   -8.7850    5.9701   -1.8031 N   0  0  0  0  0  0
  -10.2229    5.6968   -1.6182 C   0  0  0  0  0  0
  -10.6154    5.6280   -0.1246 C   0  0  0  0  0  0
  -10.2989    6.9910    0.5241 N   0  3  0  0  0  0
   -8.8032    7.3093    0.3222 C   0  0  0  0  0  0
   -8.4970    7.2828   -1.1936 C   0  0  0  0  0  0
  -10.6568    6.9793    2.0226 C   0  0  0  0  0  0
   -3.7043    0.0385    0.3199 H   0  0  0  0  0  0
   -2.5424   -2.1064    0.4827 H   0  0  0  0  0  0
   -0.0888   -2.2123    0.3577 H   0  0  0  0  0  0
    0.0699    2.0375   -0.1562 H   0  0  0  0  0  0
    2.0528    0.9109    0.0704 H   0  0  0  0  0  0
    2.1246   -1.9108    1.2071 H   0  0  0  0  0  0
    3.4362   -0.7779    1.1652 H   0  0  0  0  0  0
    0.8568   -0.4100    2.7515 H   0  0  0  0  0  0
    3.3656    1.3391    2.7538 H   0  0  0  0  0  0
    2.0194    1.4912    3.8783 H   0  0  0  0  0  0
    1.7689    1.8119    2.1763 H   0  0  0  0  0  0
    3.6378   -1.1587    3.7568 H   0  0  0  0  0  0
    2.2501   -2.2391    3.6597 H   0  0  0  0  0  0
    2.2168   -0.8690    4.7567 H   0  0  0  0  0  0
    2.6676    1.1272   -1.9913 H   0  0  0  0  0  0
    2.3556   -0.8118   -4.0964 H   0  0  0  0  0  0
    3.2889    0.6731   -4.1331 H   0  0  0  0  0  0
   -1.0220    3.6882    0.8763 H   0  0  0  0  0  0
   -2.1745    5.8364    0.7059 H   0  0  0  0  0  0
   -4.4185    5.9774   -0.2595 H   0  0  0  0  0  0
   -4.3785    1.7412   -0.9516 H   0  0  0  0  0  0
   -6.2998    1.8735   -2.1074 H   0  0  0  0  0  0
  -10.7948    6.5006   -2.0858 H   0  0  0  0  0  0
  -10.5258    4.7861   -2.1344 H   0  0  0  0  0  0
  -11.6867    5.4671    0.0037 H   0  0  0  0  0  0
  -10.0643    4.8604    0.4231 H   0  0  0  0  0  0
   -8.6389    8.2998    0.7489 H   0  0  0  0  0  0
   -8.2253    6.5722    0.8839 H   0  0  0  0  0  0
   -7.4614    7.5709   -1.3806 H   0  0  0  0  0  0
   -9.1108    8.0415   -1.6825 H   0  0  0  0  0  0
  -10.0602    6.2063    2.5103 H   0  0  0  0  0  0
  -11.7249    6.7695    2.0952 H   0  0  0  0  0  0
  -10.4279    7.9713    2.4141 H   0  0  0  0  0  0
  -10.8424    7.7013    0.0537 H   0  0  0  0  0  0
  1 18  1  0  0  0
  1  6  2  0  0  0
  1  2  1  0  0  0
  2  3  2  0  0  0
  2 36  1  0  0  0
  3  4  1  0  0  0
  3 37  1  0  0  0
  4  5  2  0  0  0
  4 38  1  0  0  0
  5  6  1  0  0  0
  5  7  1  0  0  0
  6 39  1  0  0  0
  7  9  1  0  0  0
  7  8  1  0  0  0
  7 40  1  0  0  0
  8 13  2  0  0  0
  8 14  1  0  0  0
  9 10  1  0  0  0
  9 41  1  0  0  0
  9 42  1  0  0  0
 10 11  1  0  0  0
 10 12  1  0  0  0
 10 43  1  0  0  0
 11 44  1  0  0  0
 11 45  1  0  0  0
 11 46  1  0  0  0
 12 47  1  0  0  0
 12 48  1  0  0  0
 12 49  1  0  0  0
 14 15  1  0  0  0
 14 50  1  0  0  0
 15 16  1  0  0  0
 15 51  1  0  0  0
 15 52  1  0  0  0
 16 17  3  0  0  0
 18 19  2  0  0  0
 18 23  1  0  0  0
 19 20  1  0  0  0
 19 53  1  0  0  0
 20 21  2  0  0  0
 20 54  1  0  0  0
 21 22  1  0  0  0
 21 55  1  0  0  0
 22 23  2  0  0  0
 22 24  1  0  0  0
 23 56  1  0  0  0
 24 25  1  0  0  0
 24 28  2  0  0  0
 25 26  2  0  0  0
 26 27  1  0  0  0
 26 29  1  0  0  0
 27 28  1  0  0  0
 28 57  1  0  0  0
 29 30  1  0  0  0
 29 34  1  0  0  0
 30 31  1  0  0  0
 30 58  1  0  0  0
 30 59  1  0  0  0
 31 32  1  0  0  0
 31 60  1  0  0  0
 31 61  1  0  0  0
 32 33  1  0  0  0
 32 35  1  0  0  0
 32 69  1  0  0  0
 33 34  1  0  0  0
 33 62  1  0  0  0
 33 63  1  0  0  0
 34 64  1  0  0  0
 34 65  1  0  0  0
 35 66  1  0  0  0
 35 67  1  0  0  0
 35 68  1  0  0  0
M  CHG  1  32   1
M  END
> <chembl_id>
CHEMBL213930

> <chembl_pref_name>
None

> <s_m_source_file>
sdf/inactives_sanitized.sdf

> <i_m_source_file_index>
316

> <i_lp_mmshare_version>
49012

> <i_m_ct_stereo_status>
1

> <i_f3d_flags>
0

> <s_epik_input>
TiNDW0NIMl1bTkhdQyg9TylbQ0BIXShbQ0gyXVtDSF0oW0NIM10pW0NIM10pYyhbY0hdMSlbY0hdW2NIXVtjSF1jMS1jMltjSF1bY0hdW2NIXWMoW2NIXTIpLWMzbmMoc1tjSF0zKU40W0NIMl1bQ0gyXU4oW0NIM10pW0NIMl1bQ0gyXTQ=

> <s_epik_cmdline>
J2VwaWtfcHl0aG9uJywgJy1waHQnLCAnMC41JywgJy1waCcsICc3LjUnLCAnLW50JywgJy1tYScsICcyMDAnLCAnLWltYWUnLCAnPGluZmlsZS5tYWU+JywgJy1vbWFlJywgJzxvdXRmaWxlLm1hZT4n

> <r_epik_Ionization_Penalty>
  0.5139

> <r_epik_Ionization_Penalty_Charging>
  0.5138

> <r_epik_Ionization_Penalty_Neutral>
  0.0001

> <r_epik_State_Penalty>
  0.5213

> <r_epik_Charging_Adjusted_Penalty>
1.03514408132969

> <i_epik_Tot_Q>
1

> <i_epik_Tot_abs_Q>
1

> <s_lp_Force_Field>
OPLS3e

> <r_lp_Energy>
60.290963

> <b_lp_Chiralities_Consistent>
1

> <s_lp_Variant>
sdf/inactives_sanitized.sdf:316-2

$$$$
sdf/inactives_sanitized.sdf:317
                    3D
 Schrodinger Suite 2020-1.
 46 47  0  0  1  0            999 V2000
   -2.0941   -0.3359   -1.5691 C   0  0  0  0  0  0
   -0.5644   -0.2469   -1.3514 C   0  0  0  0  0  0
   -0.1186    0.0814    0.1148 C   0  0  0  0  0  0
   -0.8185   -0.9798    1.0294 C   0  0  0  0  0  0
   -2.3544   -1.0697    0.8707 C   0  0  0  0  0  0
   -2.7494   -1.3349   -0.5953 C   0  0  0  0  0  0
    1.3472   -0.0213    0.2897 N   0  0  0  0  0  0
   -0.6144    1.5197    0.5166 C   0  0  0  0  0  0
   -0.6856    1.8122    1.8299 N   0  0  0  0  0  0
   -0.7778    2.3933   -0.3382 O   0  0  0  0  0  0
   -1.0902    3.1057    2.3733 C   0  0  0  0  0  0
   -2.5005    3.4257    2.0891 C   0  0  0  0  0  0
   -3.6081    3.6759    1.8664 N   0  0  0  0  0  0
    2.3275    0.7229   -0.2657 C   0  0  0  0  0  0
    3.7644    0.3073    0.0805 C   0  0  0  0  0  0
    2.1213    1.6699   -1.0254 O   0  0  0  0  0  0
    4.7412    1.4965    0.2084 C   0  0  0  0  0  0
    6.1386    1.0579    0.6220 C   0  0  0  0  0  0
    6.4632    0.9525    1.9774 C   0  0  0  0  0  0
    7.7401    0.5469    2.3565 C   0  0  0  0  0  0
    8.6880    0.2484    1.3796 C   0  0  0  0  0  0
    8.3705    0.3509    0.0267 C   0  0  0  0  0  0
    7.0934    0.7557   -0.3533 C   0  0  0  0  0  0
   -2.5504    0.6468   -1.4449 H   0  0  0  0  0  0
   -2.3032   -0.6328   -2.5974 H   0  0  0  0  0  0
   -0.0727   -1.1662   -1.6743 H   0  0  0  0  0  0
   -0.1291    0.4727   -2.0470 H   0  0  0  0  0  0
   -0.5610   -0.8094    2.0764 H   0  0  0  0  0  0
   -0.3523   -1.9538    0.8689 H   0  0  0  0  0  0
   -2.7462   -1.8636    1.5074 H   0  0  0  0  0  0
   -2.8255   -0.1486    1.2164 H   0  0  0  0  0  0
   -2.4516   -2.3483   -0.8687 H   0  0  0  0  0  0
   -3.8344   -1.2997   -0.7007 H   0  0  0  0  0  0
    1.6510   -0.8997    0.6837 H   0  0  0  0  0  0
   -0.5226    1.0744    2.4992 H   0  0  0  0  0  0
   -0.4586    3.9058    1.9838 H   0  0  0  0  0  0
   -0.9591    3.0918    3.4552 H   0  0  0  0  0  0
    3.7708   -0.2690    1.0079 H   0  0  0  0  0  0
    4.1163   -0.3728   -0.6965 H   0  0  0  0  0  0
    4.8116    2.0400   -0.7360 H   0  0  0  0  0  0
    4.3713    2.2205    0.9373 H   0  0  0  0  0  0
    5.7290    1.1830    2.7355 H   0  0  0  0  0  0
    7.9948    0.4648    3.4029 H   0  0  0  0  0  0
    9.6786   -0.0655    1.6739 H   0  0  0  0  0  0
    9.1114    0.1175   -0.7238 H   0  0  0  0  0  0
    6.8479    0.8330   -1.4027 H   0  0  0  0  0  0
  1  2  1  0  0  0
  1  6  1  0  0  0
  1 24  1  0  0  0
  1 25  1  0  0  0
  2  3  1  0  0  0
  2 26  1  0  0  0
  2 27  1  0  0  0
  3  7  1  0  0  0
  3  8  1  0  0  0
  3  4  1  0  0  0
  4  5  1  0  0  0
  4 28  1  0  0  0
  4 29  1  0  0  0
  5  6  1  0  0  0
  5 30  1  0  0  0
  5 31  1  0  0  0
  6 32  1  0  0  0
  6 33  1  0  0  0
  7 14  1  0  0  0
  7 34  1  0  0  0
  8  9  1  0  0  0
  8 10  2  0  0  0
  9 11  1  0  0  0
  9 35  1  0  0  0
 11 12  1  0  0  0
 11 36  1  0  0  0
 11 37  1  0  0  0
 12 13  3  0  0  0
 14 15  1  0  0  0
 14 16  2  0  0  0
 15 17  1  0  0  0
 15 38  1  0  0  0
 15 39  1  0  0  0
 17 18  1  0  0  0
 17 40  1  0  0  0
 17 41  1  0  0  0
 18 19  2  0  0  0
 18 23  1  0  0  0
 19 20  1  0  0  0
 19 42  1  0  0  0
 20 21  2  0  0  0
 20 43  1  0  0  0
 21 22  1  0  0  0
 21 44  1  0  0  0
 22 23  2  0  0  0
 22 45  1  0  0  0
 23 46  1  0  0  0
M  END
> <chembl_id>
CHEMBL372139

> <chembl_pref_name>
None

> <s_m_source_file>
sdf/inactives_sanitized.sdf

> <i_m_source_file_index>
317

> <i_lp_mmshare_version>
49012

> <i_m_ct_stereo_status>
1

> <i_f3d_flags>
0

> <s_epik_input>
W0NIMl0xW0NIMl1bQ0gyXVtDSDJdW0NIMl1DMShDKD1PKVtOSF1bQ0gyXUMjTilbTkhdQyg9TylbQ0gyXVtDSDJdYzJbY0hdW2NIXVtjSF1bY0hdW2NIXTI=

> <s_epik_cmdline>
J2VwaWtfcHl0aG9uJywgJy1waHQnLCAnMC41JywgJy1waCcsICc3LjUnLCAnLW50JywgJy1tYScsICcyMDAnLCAnLWltYWUnLCAnPGluZmlsZS5tYWU+JywgJy1vbWFlJywgJzxvdXRmaWxlLm1hZT4n

> <r_lp_tautomer_probability>
1

> <r_epik_Ionization_Penalty>
  0.0000

> <r_epik_Ionization_Penalty_Charging>
  0.0000

> <r_epik_Ionization_Penalty_Neutral>
  0.0000

> <r_epik_State_Penalty>
 -0.0000

> <r_epik_Charging_Adjusted_Penalty>
0

> <i_epik_Tot_Q>
0

> <i_epik_Tot_abs_Q>
0

> <s_lp_Force_Field>
OPLS3e

> <r_lp_Energy>
33.34163

> <b_lp_Chiralities_Consistent>
1

> <s_lp_Variant>
sdf/inactives_sanitized.sdf:317-1

$$$$
sdf/inactives_sanitized.sdf:318
                    3D
 Schrodinger Suite 2020-1.
 67 70  0  0  1  0            999 V2000
   -4.1769   -2.4107    1.3380 C   0  0  0  0  0  0
   -2.6846   -2.2805    0.9737 C   0  0  0  0  0  0
   -2.3134   -1.2199   -0.1149 C   0  0  0  0  0  0
   -3.1232    0.1088    0.1551 C   0  0  0  0  0  0
   -4.5910   -0.0172    0.6296 C   0  0  0  0  0  0
   -4.7699   -1.0559    1.7446 C   0  0  0  0  0  0
   -0.8427   -1.0391   -0.0951 N   0  0  0  0  0  0
   -2.6948   -1.8602   -1.4975 C   0  0  0  0  0  0
   -3.8702   -1.5356   -2.0678 N   0  0  0  0  0  0
   -1.9454   -2.6907   -2.0197 O   0  0  0  0  0  0
   -4.3465   -2.0487   -3.3495 C   0  0  0  0  0  0
   -3.5215   -1.6027   -4.4864 C   0  0  0  0  0  0
   -2.8741   -1.2524   -5.3792 N   0  0  0  0  0  0
   -0.0962   -0.0517   -0.6390 C   0  0  0  0  0  0
    1.4052   -0.2192   -0.5396 C   0  0  0  0  0  0
   -0.5794    0.9271   -1.2104 O   0  0  0  0  0  0
    2.2425    0.5185   -1.3865 C   0  0  0  0  0  0
    3.6252    0.3784   -1.3152 C   0  0  0  0  0  0
    4.2033   -0.5026   -0.3962 C   0  0  0  0  0  0
    3.3712   -1.2391    0.4547 C   0  0  0  0  0  0
    1.9879   -1.0981    0.3868 C   0  0  0  0  0  0
    5.6946   -0.6464   -0.3381 C   0  0  0  0  0  0
    6.2443   -1.7607    0.1239 N   0  0  0  0  0  0
    7.5560   -1.7422    0.1033 C   0  0  0  0  0  0
    8.2427   -0.2668   -0.5050 S   0  0  0  0  0  0
    6.6251    0.3166   -0.7424 C   0  0  0  0  0  0
    8.3668   -2.7725    0.5240 N   0  0  0  0  0  0
    7.9066   -4.1493    0.6152 C   0  0  0  0  0  0
    9.0594   -4.9113    1.2558 C   0  0  0  0  0  0
   10.3326   -4.2280    0.7322 C   0  0  2  0  0  0
    9.7983   -2.8618    0.2500 C   0  0  0  0  0  0
   11.1726   -4.9870   -0.3296 N   0  3  0  0  0  0
   11.5653   -6.4191    0.0943 C   0  0  0  0  0  0
   12.4430   -4.2016   -0.7235 C   0  0  0  0  0  0
   -4.2961   -3.1256    2.1530 H   0  0  0  0  0  0
   -4.7328   -2.8199    0.4933 H   0  0  0  0  0  0
   -2.2492   -3.2538    0.7356 H   0  0  0  0  0  0
   -2.1239   -2.0426    1.8803 H   0  0  0  0  0  0
   -2.5818    0.6565    0.9287 H   0  0  0  0  0  0
   -3.0416    0.8032   -0.6819 H   0  0  0  0  0  0
   -4.9457    0.9546    0.9755 H   0  0  0  0  0  0
   -5.2369   -0.2783   -0.2082 H   0  0  0  0  0  0
   -5.8283   -1.1680    1.9834 H   0  0  0  0  0  0
   -4.2862   -0.7023    2.6567 H   0  0  0  0  0  0
   -0.3347   -1.8934    0.0813 H   0  0  0  0  0  0
   -4.4390   -0.8266   -1.6283 H   0  0  0  0  0  0
   -4.3798   -3.1394   -3.3418 H   0  0  0  0  0  0
   -5.3654   -1.6989   -3.5141 H   0  0  0  0  0  0
    1.8308    1.2040   -2.1139 H   0  0  0  0  0  0
    4.2416    0.9557   -1.9888 H   0  0  0  0  0  0
    3.7921   -1.9230    1.1778 H   0  0  0  0  0  0
    1.3818   -1.6799    1.0662 H   0  0  0  0  0  0
    6.4452    1.3017   -1.1472 H   0  0  0  0  0  0
    7.0187   -4.1853    1.2483 H   0  0  0  0  0  0
    7.6157   -4.5383   -0.3621 H   0  0  0  0  0  0
    8.9923   -4.8573    2.3439 H   0  0  0  0  0  0
    8.9809   -5.9655    0.9999 H   0  0  0  0  0  0
   11.0372   -4.1033    1.5574 H   0  0  0  0  0  0
   10.3526   -2.0340    0.6942 H   0  0  0  0  0  0
    9.9363   -2.7650   -0.8280 H   0  0  0  0  0  0
   12.0960   -6.3520    1.0452 H   0  0  0  0  0  0
   12.2033   -6.8310   -0.6891 H   0  0  0  0  0  0
   10.6591   -7.0160    0.1780 H   0  0  0  0  0  0
   13.0701   -4.1123    0.1652 H   0  0  0  0  0  0
   12.1388   -3.2238   -1.0961 H   0  0  0  0  0  0
   12.9452   -4.7650   -1.5110 H   0  0  0  0  0  0
   10.6038   -5.0601   -1.1618 H   0  0  0  0  0  0
  1  6  1  0  0  0
  1  2  1  0  0  0
  1 35  1  0  0  0
  1 36  1  0  0  0
  2  3  1  0  0  0
  2 37  1  0  0  0
  2 38  1  0  0  0
  3  4  1  0  0  0
  3  7  1  0  0  0
  3  8  1  0  0  0
  4  5  1  0  0  0
  4 39  1  0  0  0
  4 40  1  0  0  0
  5  6  1  0  0  0
  5 41  1  0  0  0
  5 42  1  0  0  0
  6 43  1  0  0  0
  6 44  1  0  0  0
  7 14  1  0  0  0
  7 45  1  0  0  0
  8  9  1  0  0  0
  8 10  2  0  0  0
  9 11  1  0  0  0
  9 46  1  0  0  0
 11 12  1  0  0  0
 11 47  1  0  0  0
 11 48  1  0  0  0
 12 13  3  0  0  0
 14 15  1  0  0  0
 14 16  2  0  0  0
 15 17  2  0  0  0
 15 21  1  0  0  0
 17 18  1  0  0  0
 17 49  1  0  0  0
 18 19  2  0  0  0
 18 50  1  0  0  0
 19 20  1  0  0  0
 19 22  1  0  0  0
 20 21  2  0  0  0
 20 51  1  0  0  0
 21 52  1  0  0  0
 22 23  1  0  0  0
 22 26  2  0  0  0
 23 24  2  0  0  0
 24 25  1  0  0  0
 24 27  1  0  0  0
 25 26  1  0  0  0
 26 53  1  0  0  0
 27 28  1  0  0  0
 27 31  1  0  0  0
 28 29  1  0  0  0
 28 54  1  0  0  0
 28 55  1  0  0  0
 29 30  1  0  0  0
 29 56  1  0  0  0
 29 57  1  0  0  0
 30 31  1  0  0  0
 30 32  1  0  0  0
 30 58  1  0  0  0
 31 59  1  0  0  0
 31 60  1  0  0  0
 32 33  1  0  0  0
 32 34  1  0  0  0
 32 67  1  0  0  0
 33 61  1  0  0  0
 33 62  1  0  0  0
 33 63  1  0  0  0
 34 64  1  0  0  0
 34 65  1  0  0  0
 34 66  1  0  0  0
M  CHG  1  32   1
M  END
> <chembl_id>
CHEMBL199470

> <chembl_pref_name>
None

> <s_m_source_file>
sdf/inactives_sanitized.sdf

> <i_m_source_file_index>
318

> <i_lp_mmshare_version>
49012

> <i_m_ct_stereo_status>
1

> <i_f3d_flags>
0

> <s_epik_input>
W0NIMl0xW0NIMl1bQ0gyXVtDSDJdW0NIMl1DMShDKD1PKVtOSF1bQ0gyXUMjTilbTkhdQyg9TyljMltjSF1bY0hdYyhbY0hdW2NIXTIpLWMzbmMoc1tjSF0zKU40W0NIMl1bQ0gyXVtDQEhdKFtDSDJdNClOKFtDSDNdKVtDSDNd

> <s_epik_cmdline>
J2VwaWtfcHl0aG9uJywgJy1waHQnLCAnMC41JywgJy1waCcsICc3LjUnLCAnLW50JywgJy1tYScsICcyMDAnLCAnLWltYWUnLCAnPGluZmlsZS5tYWU+JywgJy1vbWFlJywgJzxvdXRmaWxlLm1hZT4n

> <r_epik_Ionization_Penalty>
  0.0134

> <r_epik_Ionization_Penalty_Charging>
  0.0128

> <r_epik_Ionization_Penalty_Neutral>
  0.0006

> <r_epik_State_Penalty>
  0.0100

> <r_epik_Charging_Adjusted_Penalty>
0.0227849641353368

> <i_epik_Tot_Q>
1

> <i_epik_Tot_abs_Q>
1

> <s_lp_Force_Field>
OPLS3e

> <r_lp_Energy>
53.870185

> <b_lp_Chiralities_Consistent>
1

> <s_lp_Variant>
sdf/inactives_sanitized.sdf:318-1

$$$$
sdf/inactives_sanitized.sdf:319
                    3D
 Schrodinger Suite 2020-1.
 91 93  0  0  1  0            999 V2000
   -2.1316   -0.1520    0.6113 N   0  0  0  0  0  0
   -3.1697   -0.6982    1.2922 C   0  0  0  0  0  0
   -3.0625   -2.1753    1.7539 C   0  0  1  0  0  0
    2.2854    0.4052   -1.2230 C   0  0  0  0  0  0
   -0.1073    0.1409   -0.5868 C   0  0  1  0  0  0
   -3.6781   -2.4300    3.0878 N   0  0  0  0  0  0
   -5.0793   -2.5389    3.2559 C   0  0  0  0  0  0
    5.0054   -1.5871   -1.5231 C   0  0  0  0  0  0
   -0.7119    1.4988   -0.2300 C   0  0  0  0  0  0
    3.7353    0.3683   -0.6982 C   0  0  1  0  0  0
    4.6727   -0.2268   -1.6870 N   0  0  0  0  0  0
    1.3334    0.1252   -0.3163 N   0  0  0  0  0  0
   -2.1652    1.2333    0.1360 C   0  0  0  0  0  0
   -0.8791   -0.8414    0.2974 C   0  0  0  0  0  0
   -5.4116   -2.7104    4.5634 O   0  0  0  0  0  0
    5.8737   -2.0066   -2.4799 O   0  0  0  0  0  0
   -4.2037   -0.0766    1.5435 O   0  0  0  0  0  0
   -3.5324   -3.1494    0.6326 C   0  0  0  0  0  0
    2.0530    0.7145   -2.3931 O   0  0  0  0  0  0
    4.5782   -2.3289   -0.6327 O   0  0  0  0  0  0
   -5.9237   -2.4882    2.3583 O   0  0  0  0  0  0
   -0.1501    2.5944   -0.2196 O   0  0  0  0  0  0
    4.1818    1.7843   -0.2412 C   0  0  0  0  0  0
   -6.7710   -2.8505    4.9689 C   0  0  0  0  0  0
    6.3534   -3.3474   -2.5095 C   0  0  0  0  0  0
   -2.7738   -2.3683    4.2457 C   0  0  0  0  0  0
    5.2153    0.5771   -2.7965 C   0  0  0  0  0  0
    7.2338   -3.5848   -3.7303 C   0  0  0  0  0  0
   -6.9068   -3.0001    6.4817 C   0  0  0  0  0  0
   -3.3339   -4.6500    0.9495 C   0  0  0  0  0  0
    5.5559    1.8305    0.4661 C   0  0  0  0  0  0
    7.2158   -4.8398   -4.3444 C   0  0  0  0  0  0
    8.0668   -2.5761   -4.2297 C   0  0  0  0  0  0
   -8.1669   -2.8103    7.0555 C   0  0  0  0  0  0
   -5.8162   -3.3325    7.2966 C   0  0  0  0  0  0
   -1.8603   -5.0004    1.2475 C   0  0  0  0  0  0
   -3.9292   -5.5342   -0.1672 C   0  0  0  0  0  0
    5.6016    0.9399    1.7259 C   0  0  0  0  0  0
    5.9720    3.2860    0.7673 C   0  0  0  0  0  0
   -5.9874   -3.4641    8.6723 C   0  0  0  0  0  0
    8.8663   -2.8204   -5.3433 C   0  0  0  0  0  0
    8.0158   -5.0837   -5.4577 C   0  0  0  0  0  0
   -8.3378   -2.9426    8.4312 C   0  0  0  0  0  0
    8.8366   -4.0726   -5.9528 C   0  0  0  0  0  0
   -7.2470   -3.2680    9.2337 C   0  0  0  0  0  0
   -2.0031   -2.3848    1.8859 H   0  0  0  0  0  0
   -0.3508   -0.0604   -1.6328 H   0  0  0  0  0  0
    3.7290   -0.2383    0.2086 H   0  0  0  0  0  0
    1.6130   -0.1102    0.6251 H   0  0  0  0  0  0
   -2.5146    1.9267    0.9025 H   0  0  0  0  0  0
   -2.8012    1.3239   -0.7453 H   0  0  0  0  0  0
   -1.0442   -1.7717   -0.2467 H   0  0  0  0  0  0
   -0.3229   -1.0367    1.2162 H   0  0  0  0  0  0
   -4.5740   -2.9629    0.3751 H   0  0  0  0  0  0
   -2.9858   -2.9246   -0.2837 H   0  0  0  0  0  0
    4.1818    2.4695   -1.0893 H   0  0  0  0  0  0
    3.4338    2.1850    0.4452 H   0  0  0  0  0  0
   -7.3325   -1.9706    4.6493 H   0  0  0  0  0  0
   -7.2141   -3.7236    4.4872 H   0  0  0  0  0  0
    6.9279   -3.5621   -1.6071 H   0  0  0  0  0  0
    5.5040   -4.0328   -2.5375 H   0  0  0  0  0  0
   -2.9148   -1.4316    4.7858 H   0  0  0  0  0  0
   -1.7268   -2.4278    3.9477 H   0  0  0  0  0  0
   -2.9607   -3.1942    4.9333 H   0  0  0  0  0  0
    6.2530    0.8471   -2.5986 H   0  0  0  0  0  0
    4.6466    1.4936   -2.9478 H   0  0  0  0  0  0
    5.1779    0.0268   -3.7375 H   0  0  0  0  0  0
   -3.9057   -4.8762    1.8500 H   0  0  0  0  0  0
    6.3000    1.4402   -0.2288 H   0  0  0  0  0  0
    6.5816   -5.6269   -3.9625 H   0  0  0  0  0  0
    8.0982   -1.6038   -3.7595 H   0  0  0  0  0  0
   -9.0160   -2.5589    6.4361 H   0  0  0  0  0  0
   -4.8346   -3.4923    6.8750 H   0  0  0  0  0  0
   -1.1754   -4.2350    0.8820 H   0  0  0  0  0  0
   -1.5529   -5.9441    0.7970 H   0  0  0  0  0  0
   -1.7001   -5.0960    2.3219 H   0  0  0  0  0  0
   -3.1692   -6.0988   -0.7073 H   0  0  0  0  0  0
   -4.4690   -4.9469   -0.9107 H   0  0  0  0  0  0
   -4.6362   -6.2545    0.2454 H   0  0  0  0  0  0
    4.6034    0.7020    2.0942 H   0  0  0  0  0  0
    6.1436    1.4052    2.5493 H   0  0  0  0  0  0
    6.1034   -0.0038    1.5096 H   0  0  0  0  0  0
    5.9885    3.5049    1.8350 H   0  0  0  0  0  0
    5.2938    4.0082    0.3113 H   0  0  0  0  0  0
    6.9691    3.4927    0.3772 H   0  0  0  0  0  0
   -5.1470   -3.7186    9.3013 H   0  0  0  0  0  0
    9.5076   -2.0430   -5.7321 H   0  0  0  0  0  0
    8.0010   -6.0526   -5.9347 H   0  0  0  0  0  0
   -9.3118   -2.7938    8.8737 H   0  0  0  0  0  0
    9.4575   -4.2622   -6.8162 H   0  0  0  0  0  0
   -7.3791   -3.3706   10.3007 H   0  0  0  0  0  0
  1  2  1  0  0  0
  1 13  1  0  0  0
  1 14  1  0  0  0
  2  3  1  0  0  0
  2 17  2  0  0  0
  3  6  1  0  0  0
  3 18  1  0  0  0
  3 46  1  0  0  0
  4 12  1  0  0  0
  4 10  1  0  0  0
  4 19  2  0  0  0
  5 14  1  0  0  0
  5 12  1  0  0  0
  5  9  1  0  0  0
  5 47  1  0  0  0
  6  7  1  0  0  0
  6 26  1  0  0  0
  7 15  1  0  0  0
  7 21  2  0  0  0
  8 11  1  0  0  0
  8 16  1  0  0  0
  8 20  2  0  0  0
  9 13  1  0  0  0
  9 22  2  0  0  0
 10 11  1  0  0  0
 10 23  1  0  0  0
 10 48  1  0  0  0
 11 27  1  0  0  0
 12 49  1  0  0  0
 13 50  1  0  0  0
 13 51  1  0  0  0
 14 52  1  0  0  0
 14 53  1  0  0  0
 15 24  1  0  0  0
 16 25  1  0  0  0
 18 30  1  0  0  0
 18 54  1  0  0  0
 18 55  1  0  0  0
 23 31  1  0  0  0
 23 56  1  0  0  0
 23 57  1  0  0  0
 24 29  1  0  0  0
 24 58  1  0  0  0
 24 59  1  0  0  0
 25 28  1  0  0  0
 25 60  1  0  0  0
 25 61  1  0  0  0
 26 62  1  0  0  0
 26 63  1  0  0  0
 26 64  1  0  0  0
 27 65  1  0  0  0
 27 66  1  0  0  0
 27 67  1  0  0  0
 28 32  2  0  0  0
 28 33  1  0  0  0
 29 34  2  0  0  0
 29 35  1  0  0  0
 30 36  1  0  0  0
 30 37  1  0  0  0
 30 68  1  0  0  0
 31 38  1  0  0  0
 31 39  1  0  0  0
 31 69  1  0  0  0
 32 42  1  0  0  0
 32 70  1  0  0  0
 33 41  2  0  0  0
 33 71  1  0  0  0
 34 43  1  0  0  0
 34 72  1  0  0  0
 35 40  2  0  0  0
 35 73  1  0  0  0
 36 74  1  0  0  0
 36 75  1  0  0  0
 36 76  1  0  0  0
 37 77  1  0  0  0
 37 78  1  0  0  0
 37 79  1  0  0  0
 38 80  1  0  0  0
 38 81  1  0  0  0
 38 82  1  0  0  0
 39 83  1  0  0  0
 39 84  1  0  0  0
 39 85  1  0  0  0
 40 45  1  0  0  0
 40 86  1  0  0  0
 41 44  1  0  0  0
 41 87  1  0  0  0
 42 44  2  0  0  0
 42 88  1  0  0  0
 43 45  2  0  0  0
 43 89  1  0  0  0
 44 90  1  0  0  0
 45 91  1  0  0  0
M  END
> <chembl_id>
CHEMBL423995

> <chembl_pref_name>
None

> <i_m_ct_stereo_status>
1

> <s_m_source_file>
sdf/inactives_sanitized.sdf

> <i_m_source_file_index>
319

> <i_lp_mmshare_version>
49012

> <i_f3d_flags>
0

> <s_epik_input>
W2NIXTFbY0hdW2NIXVtjSF1bY0hdYzFbQ0gyXU9DKD1PKU4oW0NIM10pW0NAQEhdKFtDSDJdW0NIXShbQ0gzXSlbQ0gzXSlDKD1PKU4yW0NIMl1DKD1PKVtDQEhdKFtDSDJdMilbTkhdQyg9TylbQ0BIXShbQ0gyXVtDSF0oW0NIM10pW0NIM10pTihbQ0gzXSlDKD1PKU9bQ0gyXWMzW2NIXVtjSF1bY0hdW2NIXVtjSF0z

> <s_epik_cmdline>
J2VwaWtfcHl0aG9uJywgJy1waHQnLCAnMC41JywgJy1waCcsICc3LjUnLCAnLW50JywgJy1tYScsICcyMDAnLCAnLWltYWUnLCAnPGluZmlsZS5tYWU+JywgJy1vbWFlJywgJzxvdXRmaWxlLm1hZT4n

> <r_lp_tautomer_probability>
1

> <r_epik_Ionization_Penalty>
  0.0000

> <r_epik_Ionization_Penalty_Charging>
  0.0000

> <r_epik_Ionization_Penalty_Neutral>
  0.0000

> <r_epik_State_Penalty>
 -0.0000

> <r_epik_Charging_Adjusted_Penalty>
0

> <i_epik_Tot_Q>
0

> <i_epik_Tot_abs_Q>
0

> <s_epik_Chemistry_Notes>
This compound has an ester and may undergo hydrolysis at high or low pH.

> <s_lp_Force_Field>
OPLS3e

> <r_lp_Energy>
54.391412

> <b_lp_Chiralities_Consistent>
1

> <s_lp_Variant>
sdf/inactives_sanitized.sdf:319-1

$$$$
sdf/inactives_sanitized.sdf:320
                    3D
 Schrodinger Suite 2020-1.
 49 51  0  0  1  0            999 V2000
   -4.3382    1.0363    1.3267 C   0  0  0  0  0  0
   -2.8542    0.7368    1.4791 C   0  0  0  0  0  0
   -2.3235    0.4766    0.0605 C   0  0  1  0  0  0
   -3.2397    1.3098   -0.7704 N   0  0  2  0  0  0
   -4.5934    1.2534   -0.1657 C   0  0  0  0  0  0
   -0.8441    0.8899   -0.0728 C   0  0  0  0  0  0
    0.0500   -0.1127   -0.1338 N   0  0  0  0  0  0
   -0.5196    2.0774   -0.0117 O   0  0  0  0  0  0
   -3.1170    1.2944   -2.5416 S   0  0  0  0  0  0
   -4.1321    2.6677   -3.0829 C   0  0  0  0  0  0
   -1.7339    1.6111   -2.9162 O   0  0  0  0  0  0
   -3.7476    0.0555   -3.0128 O   0  0  0  0  0  0
    1.5136    0.0406   -0.1022 C   0  0  2  0  0  0
    2.0926   -0.6629   -1.3188 C   0  0  0  0  0  0
    2.0893   -0.5569    1.2064 C   0  0  0  0  0  0
    1.5951    0.1054    2.4838 C   0  0  0  0  0  0
    0.4417   -0.3776    3.1393 C   0  0  0  0  0  0
   -0.0655    0.2961    4.2424 C   0  0  0  0  0  0
    0.5436    1.4612    4.6910 C   0  0  0  0  0  0
    1.6563    1.9703    4.0328 C   0  0  0  0  0  0
    2.1772    1.3121    2.9262 C   0  0  0  0  0  0
    1.4340   -1.2302   -2.1932 O   0  0  0  0  0  0
   -5.4491    2.4499   -3.4956 C   0  0  0  0  0  0
   -6.2348    3.5278   -3.8953 C   0  0  0  0  0  0
   -5.7034    4.8164   -3.8746 C   0  0  0  0  0  0
   -3.6051    3.9607   -3.0550 C   0  0  0  0  0  0
   -4.3925    5.0367   -3.4553 C   0  0  0  0  0  0
   -6.7789    6.2889   -4.4209 Br  0  0  0  0  0  0
   -4.6023    1.9295    1.8946 H   0  0  0  0  0  0
   -4.9533    0.2203    1.7092 H   0  0  0  0  0  0
   -2.7031   -0.1381    2.1134 H   0  0  0  0  0  0
   -2.3453    1.5665    1.9759 H   0  0  0  0  0  0
   -2.4307   -0.5806   -0.1936 H   0  0  0  0  0  0
   -5.2180    2.0979   -0.4579 H   0  0  0  0  0  0
   -5.1258    0.4007   -0.5904 H   0  0  0  0  0  0
   -0.2854   -1.0644   -0.1055 H   0  0  0  0  0  0
    1.7935    1.0949   -0.1567 H   0  0  0  0  0  0
    3.1811   -0.6295   -1.3731 H   0  0  0  0  0  0
    1.8551   -1.6215    1.2732 H   0  0  0  0  0  0
    3.1789   -0.4872    1.1989 H   0  0  0  0  0  0
   -0.0527   -1.2698    2.7836 H   0  0  0  0  0  0
   -0.9421   -0.0820    4.7476 H   0  0  0  0  0  0
    0.1420    1.9812    5.5484 H   0  0  0  0  0  0
    2.1125    2.8867    4.3772 H   0  0  0  0  0  0
    3.0284    1.7272    2.4065 H   0  0  0  0  0  0
   -5.8673    1.4540   -3.5072 H   0  0  0  0  0  0
   -7.2523    3.3642   -4.2185 H   0  0  0  0  0  0
   -2.5915    4.1332   -2.7229 H   0  0  0  0  0  0
   -3.9873    6.0377   -3.4380 H   0  0  0  0  0  0
  1  5  1  0  0  0
  1  2  1  0  0  0
  1 29  1  0  0  0
  1 30  1  0  0  0
  2  3  1  0  0  0
  2 31  1  0  0  0
  2 32  1  0  0  0
  3  4  1  0  0  0
  3  6  1  0  0  0
  3 33  1  0  0  0
  4  9  1  0  0  0
  4  5  1  0  0  0
  5 34  1  0  0  0
  5 35  1  0  0  0
  6  7  1  0  0  0
  6  8  2  0  0  0
  7 13  1  0  0  0
  7 36  1  0  0  0
  9 10  1  0  0  0
  9 11  2  0  0  0
  9 12  2  0  0  0
 10 23  2  0  0  0
 10 26  1  0  0  0
 13 14  1  0  0  0
 13 15  1  0  0  0
 13 37  1  0  0  0
 14 22  2  0  0  0
 14 38  1  0  0  0
 15 16  1  0  0  0
 15 39  1  0  0  0
 15 40  1  0  0  0
 16 17  2  0  0  0
 16 21  1  0  0  0
 17 18  1  0  0  0
 17 41  1  0  0  0
 18 19  2  0  0  0
 18 42  1  0  0  0
 19 20  1  0  0  0
 19 43  1  0  0  0
 20 21  2  0  0  0
 20 44  1  0  0  0
 21 45  1  0  0  0
 23 24  1  0  0  0
 23 46  1  0  0  0
 24 25  2  0  0  0
 24 47  1  0  0  0
 25 27  1  0  0  0
 25 28  1  0  0  0
 26 27  2  0  0  0
 26 48  1  0  0  0
 27 49  1  0  0  0
M  END
> <chembl_id>
CHEMBL213107

> <chembl_pref_name>
None

> <i_m_ct_stereo_status>
1

> <s_m_source_file>
sdf/inactives_sanitized.sdf

> <i_m_source_file_index>
320

> <i_lp_mmshare_version>
49012

> <i_f3d_flags>
0

> <s_epik_input>
W2NIXTFbY0hdYyhCcilbY0hdW2NIXWMxUyg9TykoPU8pTjJbQ0gyXVtDSDJdW0NIMl1bQ0BASF0yQyg9TylbTkhdW0NASF0oW0NIXT1PKVtDSDJdYzNbY0hdW2NIXVtjSF1bY0hdW2NIXTM=

> <s_epik_cmdline>
J2VwaWtfcHl0aG9uJywgJy1waHQnLCAnMC41JywgJy1waCcsICc3LjUnLCAnLW50JywgJy1tYScsICcyMDAnLCAnLWltYWUnLCAnPGluZmlsZS5tYWU+JywgJy1vbWFlJywgJzxvdXRmaWxlLm1hZT4n

> <r_lp_tautomer_probability>
1

> <r_epik_Ionization_Penalty>
  0.0030

> <r_epik_Ionization_Penalty_Charging>
  0.0000

> <r_epik_Ionization_Penalty_Neutral>
  0.0030

> <r_epik_State_Penalty>
 -0.0000

> <r_epik_Charging_Adjusted_Penalty>
0

> <i_epik_Tot_Q>
0

> <i_epik_Tot_abs_Q>
0

> <s_lp_Force_Field>
OPLS3e

> <r_lp_Energy>
32.962911

> <b_lp_Chiralities_Consistent>
1

> <s_lp_Variant>
sdf/inactives_sanitized.sdf:320-1

$$$$
sdf/inactives_sanitized.sdf:321
                    3D
 Schrodinger Suite 2020-1.
 65 67  0  0  1  0            999 V2000
    5.3263   -1.3032    2.5750 O   0  0  0  0  0  0
    5.5668   -1.4973    3.9817 C   0  0  0  0  0  0
    4.3893   -2.2425    4.6579 C   0  0  0  0  0  0
    5.8556   -0.1541    4.6967 C   0  0  0  0  0  0
    6.8281   -2.3836    4.0345 C   0  0  0  0  0  0
    3.5170    0.0727   -0.3009 C   0  0  0  0  0  0
    3.9032   -0.3409   -1.7582 C   0  0  0  0  0  0
    3.2611    0.4862   -2.8913 C   0  0  0  0  0  0
    3.5531    1.9857   -2.7225 C   0  0  0  0  0  0
    3.1264    2.5007   -1.3383 C   0  0  0  0  0  0
    3.6838    1.6342   -0.1804 C   0  0  0  0  0  0
    2.0285   -0.3891   -0.0881 C   0  0  0  0  0  0
    1.7686   -1.5929   -0.0204 O   0  0  0  0  0  0
   -1.2031    3.2712   -2.0807 O   0  0  0  0  0  0
   -0.8944    3.3182   -3.4011 C   0  0  0  0  0  0
   -0.4205    2.1822   -3.8512 N   0  0  0  0  0  0
   -0.4077    1.3161   -2.7621 N   0  0  0  0  0  0
   -0.8690    1.9989   -1.7398 C   0  0  0  0  0  0
   -1.0208    1.5886   -0.3431 C   0  0  0  0  0  0
   -1.6496    2.3026    0.4411 O   0  0  0  0  0  0
   -0.3797    0.2786    0.1137 C   0  0  1  0  0  0
    1.0569    0.5384   -0.0208 N   0  0  0  0  0  0
   -0.7867   -0.1726    1.5465 C   0  0  0  0  0  0
   -2.2483   -0.6488    1.6761 C   0  0  0  0  0  0
   -2.5982   -1.1079    3.0980 C   0  0  0  0  0  0
    4.3961   -0.6392    0.6543 N   0  0  0  0  0  0
    4.3046   -0.5803    2.0433 C   0  0  0  0  0  0
    3.4486    0.0243    2.6917 O   0  0  0  0  0  0
   -1.1005    4.5538   -4.1252 C   0  0  0  0  0  0
   -1.5883    5.8018   -3.7598 C   0  0  0  0  0  0
   -1.5472    6.6070   -4.8987 C   0  0  0  0  0  0
   -1.0351    5.8167   -5.9129 C   0  0  0  0  0  0
   -0.7644    4.5718   -5.4437 O   0  0  0  0  0  0
    4.6265   -2.5070    5.6890 H   0  0  0  0  0  0
    4.1502   -3.1660    4.1291 H   0  0  0  0  0  0
    3.4799   -1.6424    4.6831 H   0  0  0  0  0  0
    4.9789    0.4924    4.7324 H   0  0  0  0  0  0
    6.6450    0.4020    4.1894 H   0  0  0  0  0  0
    6.1779   -0.3139    5.7264 H   0  0  0  0  0  0
    7.1162   -2.6130    5.0613 H   0  0  0  0  0  0
    7.6792   -1.8962    3.5567 H   0  0  0  0  0  0
    6.6724   -3.3321    3.5183 H   0  0  0  0  0  0
    4.9907   -0.3126   -1.8518 H   0  0  0  0  0  0
    3.7252   -1.4075   -1.9126 H   0  0  0  0  0  0
    3.6376    0.1440   -3.8560 H   0  0  0  0  0  0
    2.1848    0.3161   -2.9125 H   0  0  0  0  0  0
    4.6203    2.1643   -2.8619 H   0  0  0  0  0  0
    3.0443    2.5539   -3.5025 H   0  0  0  0  0  0
    3.4624    3.5309   -1.2144 H   0  0  0  0  0  0
    2.0396    2.5496   -1.2955 H   0  0  0  0  0  0
    3.3177    1.9867    0.7853 H   0  0  0  0  0  0
    4.7502    1.8436   -0.0783 H   0  0  0  0  0  0
   -0.6581   -0.5018   -0.5985 H   0  0  0  0  0  0
    1.3160    1.5115   -0.0951 H   0  0  0  0  0  0
   -0.1376   -0.9951    1.8510 H   0  0  0  0  0  0
   -0.5816    0.6247    2.2638 H   0  0  0  0  0  0
   -2.9344    0.1477    1.3877 H   0  0  0  0  0  0
   -2.4251   -1.4731    0.9841 H   0  0  0  0  0  0
   -3.6313   -1.4522    3.1524 H   0  0  0  0  0  0
   -2.4822   -0.2948    3.8154 H   0  0  0  0  0  0
   -1.9580   -1.9307    3.4176 H   0  0  0  0  0  0
    5.2085   -1.0973    0.2684 H   0  0  0  0  0  0
   -1.9332    6.0931   -2.7786 H   0  0  0  0  0  0
   -1.8532    7.6401   -4.9740 H   0  0  0  0  0  0
   -0.8198    5.9921   -6.9568 H   0  0  0  0  0  0
  1  2  1  0  0  0
  1 27  1  0  0  0
  2  3  1  0  0  0
  2  4  1  0  0  0
  2  5  1  0  0  0
  3 34  1  0  0  0
  3 35  1  0  0  0
  3 36  1  0  0  0
  4 37  1  0  0  0
  4 38  1  0  0  0
  4 39  1  0  0  0
  5 40  1  0  0  0
  5 41  1  0  0  0
  5 42  1  0  0  0
  6 12  1  0  0  0
  6 26  1  0  0  0
  6  7  1  0  0  0
  6 11  1  0  0  0
  7  8  1  0  0  0
  7 43  1  0  0  0
  7 44  1  0  0  0
  8  9  1  0  0  0
  8 45  1  0  0  0
  8 46  1  0  0  0
  9 10  1  0  0  0
  9 47  1  0  0  0
  9 48  1  0  0  0
 10 11  1  0  0  0
 10 49  1  0  0  0
 10 50  1  0  0  0
 11 51  1  0  0  0
 11 52  1  0  0  0
 12 13  2  0  0  0
 12 22  1  0  0  0
 14 15  1  0  0  0
 14 18  1  0  0  0
 15 16  2  0  0  0
 15 29  1  0  0  0
 16 17  1  0  0  0
 17 18  2  0  0  0
 18 19  1  0  0  0
 19 20  2  0  0  0
 19 21  1  0  0  0
 21 22  1  0  0  0
 21 23  1  0  0  0
 21 53  1  0  0  0
 22 54  1  0  0  0
 23 24  1  0  0  0
 23 55  1  0  0  0
 23 56  1  0  0  0
 24 25  1  0  0  0
 24 57  1  0  0  0
 24 58  1  0  0  0
 25 59  1  0  0  0
 25 60  1  0  0  0
 25 61  1  0  0  0
 26 27  1  0  0  0
 26 62  1  0  0  0
 27 28  2  0  0  0
 29 30  2  0  0  0
 29 33  1  0  0  0
 30 31  1  0  0  0
 30 63  1  0  0  0
 31 32  2  0  0  0
 31 64  1  0  0  0
 32 33  1  0  0  0
 32 65  1  0  0  0
M  END
> <chembl_id>
CHEMBL209216

> <chembl_pref_name>
None

> <i_m_ct_stereo_status>
1

> <s_m_source_file>
sdf/inactives_sanitized.sdf

> <i_m_source_file_index>
321

> <i_lp_mmshare_version>
49012

> <i_f3d_flags>
0

> <s_epik_input>
W0NIM11DKFtDSDNdKShbQ0gzXSlPQyg9TylbTkhdQzEoW0NIMl1bQ0gyXVtDSDJdW0NIMl1bQ0gyXTEpQyg9TylbTkhdW0NAQEhdKFtDSDJdW0NIMl1bQ0gzXSlDKD1PKWMobm4yKW9jMi1jM1tjSF1bY0hdW2NIXW8z

> <s_epik_cmdline>
J2VwaWtfcHl0aG9uJywgJy1waHQnLCAnMC41JywgJy1waCcsICc3LjUnLCAnLW50JywgJy1tYScsICcyMDAnLCAnLWltYWUnLCAnPGluZmlsZS5tYWU+JywgJy1vbWFlJywgJzxvdXRmaWxlLm1hZT4n

> <r_lp_tautomer_probability>
1

> <r_epik_Ionization_Penalty>
  0.0000

> <r_epik_Ionization_Penalty_Charging>
  0.0000

> <r_epik_Ionization_Penalty_Neutral>
  0.0000

> <r_epik_State_Penalty>
 -0.0000

> <r_epik_Charging_Adjusted_Penalty>
0

> <i_epik_Tot_Q>
0

> <i_epik_Tot_abs_Q>
0

> <s_epik_Chemistry_Notes>
This compound has an ester and may undergo hydrolysis at high or low pH.

> <s_lp_Force_Field>
OPLS3e

> <r_lp_Energy>
34.227958

> <b_lp_Chiralities_Consistent>
1

> <s_lp_Variant>
sdf/inactives_sanitized.sdf:321-1

$$$$
sdf/inactives_sanitized.sdf:322
                    3D
 Schrodinger Suite 2020-1.
 71 74  0  0  1  0            999 V2000
   -0.9991   -5.7224    6.1357 C   0  0  0  0  0  0
    0.1523   -5.0102    6.4666 C   0  0  0  0  0  0
    0.5763   -3.9604    5.6574 C   0  0  0  0  0  0
   -0.1529   -3.6184    4.5216 C   0  0  0  0  0  0
   -1.3240   -4.3183    4.1858 C   0  0  0  0  0  0
   -1.7482   -5.3950    4.9954 C   0  0  0  0  0  0
   -2.6237    0.3768   -1.6961 C   0  0  0  0  0  0
   -2.6609   -0.8963   -1.8554 N   0  0  0  0  0  0
   -0.2687   -0.4867   -0.1032 N   0  0  0  0  0  0
   -2.2611   -1.8100   -0.7861 C   0  0  1  0  0  0
   -0.7417   -1.7286   -0.4588 C   0  0  0  0  0  0
   -3.2385   -1.8209    0.4297 C   0  0  0  0  0  0
   -2.9885   -2.9017    1.3301 O   0  0  0  0  0  0
   -0.0420   -2.7373   -0.5880 O   0  0  0  0  0  0
   -2.1909    1.0416   -0.4329 C   0  0  0  0  0  0
   -1.0890    0.5889    0.3517 C   0  0  0  0  0  0
   -0.7294    1.3564    1.4744 C   0  0  0  0  0  0
   -1.4656    2.4626    1.8826 C   0  0  0  0  0  0
   -2.5750    2.8586    1.1508 C   0  0  0  0  0  0
   -2.9301    2.1547    0.0064 C   0  0  0  0  0  0
   -3.0003    1.2448   -2.8392 C   0  0  0  0  0  0
   -4.0501    0.8792   -3.6964 C   0  0  0  0  0  0
   -4.3839    1.6826   -4.7834 C   0  0  0  0  0  0
   -3.6680    2.8517   -5.0245 C   0  0  0  0  0  0
   -2.6216    3.2267   -4.1868 C   0  0  0  0  0  0
   -2.2882    2.4264   -3.0977 C   0  0  0  0  0  0
   -2.2120   -2.7549    2.4273 C   0  0  0  0  0  0
   -2.0622   -3.9981    3.0313 N   0  0  0  0  0  0
   -1.7318   -1.6843    2.8073 O   0  0  0  0  0  0
    1.2139   -0.3769    0.0326 C   0  0  0  0  0  0
    1.8823   -0.0221   -1.3195 C   0  0  0  0  0  0
    3.0955   -0.1905   -1.4383 O   0  0  0  0  0  0
    1.1114    0.4706   -2.3096 N   0  0  0  0  0  0
    1.5393    0.8097   -3.6613 C   0  0  0  0  0  0
    0.4901    0.3911   -4.6708 C   0  0  0  0  0  0
    0.6609   -0.5577   -5.6141 C   0  0  0  0  0  0
   -0.3671   -0.9646   -6.5717 C   0  0  0  0  0  0
   -1.5614   -0.3348   -6.4172 O   0  0  0  0  0  0
   -0.1375   -1.8141   -7.4347 O   0  0  0  0  0  0
   -2.6564   -0.6335   -7.2710 C   0  0  0  0  0  0
    1.0557   -5.4341    7.8751 Cl  0  0  0  0  0  0
   -3.0090   -6.2071    4.6601 C   0  0  0  0  0  0
   -4.0733   -5.4039    4.6392 F   0  0  0  0  0  0
   -2.8765   -6.7735    3.4600 F   0  0  0  0  0  0
   -3.2493   -7.1783    5.5436 F   0  0  0  0  0  0
   -3.5015    4.2261    1.6509 Cl  0  0  0  0  0  0
   -1.3027   -6.5370    6.7770 H   0  0  0  0  0  0
    1.4735   -3.4119    5.9043 H   0  0  0  0  0  0
    0.2144   -2.8126    3.9040 H   0  0  0  0  0  0
   -2.3861   -2.8002   -1.2288 H   0  0  0  0  0  0
   -3.2562   -0.8687    0.9603 H   0  0  0  0  0  0
   -4.2524   -1.9598    0.0534 H   0  0  0  0  0  0
    0.1153    1.0734    2.0838 H   0  0  0  0  0  0
   -1.1731    3.0078    2.7681 H   0  0  0  0  0  0
   -3.7931    2.4944   -0.5499 H   0  0  0  0  0  0
   -4.6150   -0.0270   -3.5281 H   0  0  0  0  0  0
   -5.1928    1.3975   -5.4397 H   0  0  0  0  0  0
   -3.9254    3.4724   -5.8703 H   0  0  0  0  0  0
   -2.0677    4.1328   -4.3832 H   0  0  0  0  0  0
   -1.4631    2.7286   -2.4679 H   0  0  0  0  0  0
   -2.6061   -4.7520    2.6376 H   0  0  0  0  0  0
    1.5196    0.3726    0.7589 H   0  0  0  0  0  0
    1.6348   -1.3166    0.3948 H   0  0  0  0  0  0
    0.1510    0.6899   -2.0883 H   0  0  0  0  0  0
    1.6910    1.8881   -3.7196 H   0  0  0  0  0  0
    2.4939    0.3404   -3.9108 H   0  0  0  0  0  0
   -0.4511    0.9146   -4.5847 H   0  0  0  0  0  0
    1.6069   -1.0748   -5.6927 H   0  0  0  0  0  0
   -3.5131   -0.0150   -7.0046 H   0  0  0  0  0  0
   -2.9505   -1.6798   -7.1781 H   0  0  0  0  0  0
   -2.4060   -0.4346   -8.3138 H   0  0  0  0  0  0
  1  6  2  0  0  0
  1  2  1  0  0  0
  1 47  1  0  0  0
  2 41  1  0  0  0
  2  3  2  0  0  0
  3  4  1  0  0  0
  3 48  1  0  0  0
  4  5  2  0  0  0
  4 49  1  0  0  0
  5  6  1  0  0  0
  5 28  1  0  0  0
  6 42  1  0  0  0
  7 21  1  0  0  0
  7 15  1  0  0  0
  7  8  2  0  0  0
  8 10  1  0  0  0
  9 30  1  0  0  0
  9 16  1  0  0  0
  9 11  1  0  0  0
 10 11  1  0  0  0
 10 12  1  0  0  0
 10 50  1  0  0  0
 11 14  2  0  0  0
 12 13  1  0  0  0
 12 51  1  0  0  0
 12 52  1  0  0  0
 13 27  1  0  0  0
 15 16  2  0  0  0
 15 20  1  0  0  0
 16 17  1  0  0  0
 17 18  2  0  0  0
 17 53  1  0  0  0
 18 19  1  0  0  0
 18 54  1  0  0  0
 19 20  2  0  0  0
 19 46  1  0  0  0
 20 55  1  0  0  0
 21 26  2  0  0  0
 21 22  1  0  0  0
 22 23  2  0  0  0
 22 56  1  0  0  0
 23 24  1  0  0  0
 23 57  1  0  0  0
 24 25  2  0  0  0
 24 58  1  0  0  0
 25 26  1  0  0  0
 25 59  1  0  0  0
 26 60  1  0  0  0
 27 28  1  0  0  0
 27 29  2  0  0  0
 28 61  1  0  0  0
 30 31  1  0  0  0
 30 62  1  0  0  0
 30 63  1  0  0  0
 31 32  2  0  0  0
 31 33  1  0  0  0
 33 34  1  0  0  0
 33 64  1  0  0  0
 34 35  1  0  0  0
 34 65  1  0  0  0
 34 66  1  0  0  0
 35 36  2  0  0  0
 35 67  1  0  0  0
 36 37  1  0  0  0
 36 68  1  0  0  0
 37 38  1  0  0  0
 37 39  2  0  0  0
 38 40  1  0  0  0
 40 69  1  0  0  0
 40 70  1  0  0  0
 40 71  1  0  0  0
 42 43  1  0  0  0
 42 44  1  0  0  0
 42 45  1  0  0  0
M  END
> <chembl_id>
CHEMBL1171804

> <chembl_pref_name>
None

> <i_m_ct_stereo_status>
1

> <s_m_source_file>
sdf/inactives_sanitized.sdf

> <i_m_source_file_index>
322

> <i_lp_mmshare_version>
49012

> <i_f3d_flags>
0

> <s_epik_input>
Q2xjMVtjSF1jKEMoRikoRilGKWMoW2NIXVtjSF0xKVtOSF1DKD1PKU9bQ0gyXVtDQEBIXShOPUMyYzNbY0hdW2NIXVtjSF1bY0hdW2NIXTMpQyg9TylOKGMoYzI0KVtjSF1bY0hdYyhDbClbY0hdNClbQ0gyXUMoPU8pW05IXVtDSDJdL1tDSF09W0NIXS9DKD1PKU9bQ0gzXQ==

> <s_epik_cmdline>
J2VwaWtfcHl0aG9uJywgJy1waHQnLCAnMC41JywgJy1waCcsICc3LjUnLCAnLW50JywgJy1tYScsICcyMDAnLCAnLWltYWUnLCAnPGluZmlsZS5tYWU+JywgJy1vbWFlJywgJzxvdXRmaWxlLm1hZT4n

> <r_lp_tautomer_probability>
1

> <r_epik_Ionization_Penalty>
  0.0000

> <r_epik_Ionization_Penalty_Charging>
  0.0000

> <r_epik_Ionization_Penalty_Neutral>
  0.0000

> <r_epik_State_Penalty>
 -0.0000

> <r_epik_Charging_Adjusted_Penalty>
0

> <i_epik_Tot_Q>
0

> <i_epik_Tot_abs_Q>
0

> <s_epik_Chemistry_Notes>
This compound has an ester and may undergo hydrolysis at high or low pH. This compound has an imine and may undergo hydrolysis.

> <s_lp_Force_Field>
OPLS3e

> <r_lp_Energy>
68.869441

> <b_lp_Chiralities_Consistent>
1

> <s_lp_Variant>
sdf/inactives_sanitized.sdf:322-1

$$$$
sdf/inactives_sanitized.sdf:323
                    3D
 Schrodinger Suite 2020-1.
 35 34  0  0  1  0            999 V2000
   -0.2832   -0.9262   -1.7223 C   0  0  0  0  0  0
   -0.1321   -0.8624    0.1282 S   0  0  1  0  0  0
    2.0881   -1.0142    0.1439 S   0  0  0  0  0  0
    2.2692   -1.1875    1.9388 C   0  0  0  0  0  0
    0.0515   -2.3315   -2.2635 C   0  0  0  0  0  0
   -0.2133   -2.5131   -3.7767 C   0  0  0  0  0  0
   -0.0494   -3.9866   -4.1927 C   0  0  0  0  0  0
    0.6689   -1.5990   -4.6498 C   0  0  0  0  0  0
    3.7280   -1.2847    2.4191 C   0  0  0  0  0  0
    3.8942   -1.5435    3.9357 C   0  0  0  0  0  0
    3.3301   -0.4019    4.8046 C   0  0  0  0  0  0
    5.3673   -1.8190    4.2895 C   0  0  0  0  0  0
   -0.5807    0.5353    0.5581 O   0  0  0  0  0  0
   -1.3110   -0.6657   -1.9757 H   0  0  0  0  0  0
    0.3569   -0.1572   -2.1543 H   0  0  0  0  0  0
    1.7767   -0.3332    2.4031 H   0  0  0  0  0  0
    1.7143   -2.0720    2.2534 H   0  0  0  0  0  0
   -0.5421   -3.0619   -1.7111 H   0  0  0  0  0  0
    1.0920   -2.5776   -2.0494 H   0  0  0  0  0  0
   -1.2531   -2.2418   -3.9677 H   0  0  0  0  0  0
    0.9700   -4.3376   -4.0261 H   0  0  0  0  0  0
   -0.2796   -4.1282   -5.2493 H   0  0  0  0  0  0
   -0.7194   -4.6349   -3.6268 H   0  0  0  0  0  0
    1.7297   -1.7873   -4.4794 H   0  0  0  0  0  0
    0.4814   -0.5444   -4.4482 H   0  0  0  0  0  0
    0.4716   -1.7577   -5.7107 H   0  0  0  0  0  0
    4.2165   -2.0892    1.8668 H   0  0  0  0  0  0
    4.2589   -0.3723    2.1428 H   0  0  0  0  0  0
    3.3336   -2.4470    4.1809 H   0  0  0  0  0  0
    3.8174    0.5478    4.5809 H   0  0  0  0  0  0
    3.4766   -0.6057    5.8660 H   0  0  0  0  0  0
    2.2587   -0.2702    4.6545 H   0  0  0  0  0  0
    5.9982   -0.9564    4.0711 H   0  0  0  0  0  0
    5.7588   -2.6667    3.7259 H   0  0  0  0  0  0
    5.4835   -2.0541    5.3480 H   0  0  0  0  0  0
  1  2  1  0  0  0
  1  5  1  0  0  0
  1 14  1  0  0  0
  1 15  1  0  0  0
  2  3  1  0  0  0
  2 13  2  0  0  0
  3  4  1  0  0  0
  4  9  1  0  0  0
  4 16  1  0  0  0
  4 17  1  0  0  0
  5  6  1  0  0  0
  5 18  1  0  0  0
  5 19  1  0  0  0
  6  7  1  0  0  0
  6  8  1  0  0  0
  6 20  1  0  0  0
  7 21  1  0  0  0
  7 22  1  0  0  0
  7 23  1  0  0  0
  8 24  1  0  0  0
  8 25  1  0  0  0
  8 26  1  0  0  0
  9 10  1  0  0  0
  9 27  1  0  0  0
  9 28  1  0  0  0
 10 11  1  0  0  0
 10 12  1  0  0  0
 10 29  1  0  0  0
 11 30  1  0  0  0
 11 31  1  0  0  0
 11 32  1  0  0  0
 12 33  1  0  0  0
 12 34  1  0  0  0
 12 35  1  0  0  0
M  END
> <chembl_id>
CHEMBL1224170

> <chembl_pref_name>
None

> <s_m_source_file>
sdf/inactives_sanitized.sdf

> <i_m_source_file_index>
323

> <i_lp_mmshare_version>
49012

> <i_m_ct_stereo_status>
1

> <i_f3d_flags>
0

> <s_epik_input>
W0NIM11bQ0hdKFtDSDNdKVtDSDJdW0NIMl1bUytdKFtPLV0pU1tDSDJdW0NIMl1bQ0hdKFtDSDNdKVtDSDNd

> <s_epik_cmdline>
J2VwaWtfcHl0aG9uJywgJy1waHQnLCAnMC41JywgJy1waCcsICc3LjUnLCAnLW50JywgJy1tYScsICcyMDAnLCAnLWltYWUnLCAnPGluZmlsZS5tYWU+JywgJy1vbWFlJywgJzxvdXRmaWxlLm1hZT4n

> <r_lp_tautomer_probability>
1

> <r_epik_Ionization_Penalty>
  0.0000

> <r_epik_Ionization_Penalty_Charging>
  0.0000

> <r_epik_Ionization_Penalty_Neutral>
  0.0000

> <r_epik_State_Penalty>
 -0.0000

> <r_epik_Charging_Adjusted_Penalty>
0

> <i_epik_Tot_Q>
0

> <i_epik_Tot_abs_Q>
2

> <s_lp_Force_Field>
OPLS3e

> <r_lp_Energy>
0.835655

> <b_lp_Chiralities_Consistent>
1

> <s_lp_Variant>
sdf/inactives_sanitized.sdf:323-1

$$$$
sdf/inactives_sanitized.sdf:324
                    3D
 Schrodinger Suite 2020-1.
 60 62  0  0  1  0            999 V2000
   -1.9668   -0.3003   -0.8809 C   0  0  0  0  0  0
   -0.4430   -0.0683   -0.8867 C   0  0  0  0  0  0
    0.2317    0.2032    0.5013 C   0  0  0  0  0  0
   -0.3925   -0.7203    1.6222 C   0  0  0  0  0  0
   -1.9079   -1.0236    1.5456 C   0  0  0  0  0  0
   -2.3694   -1.3850    0.1273 C   0  0  0  0  0  0
    1.7044    0.0903    0.4053 N   0  0  0  0  0  0
   -0.0465    1.7134    0.8319 C   0  0  0  0  0  0
   -1.1160    2.0332    1.5855 N   0  0  0  0  0  0
    0.6694    2.5977    0.3506 O   0  0  0  0  0  0
   -1.5468    3.3939    1.8944 C   0  0  0  0  0  0
   -2.0305    4.1196    0.7065 C   0  0  0  0  0  0
   -2.4108    4.6887   -0.2264 N   0  0  0  0  0  0
    2.4658   -1.0112    0.2302 C   0  0  0  0  0  0
    3.9542   -0.7707    0.1147 C   0  0  0  0  0  0
    2.0072   -2.1508    0.1341 O   0  0  0  0  0  0
    4.7554   -1.6936   -0.5718 C   0  0  0  0  0  0
    6.1274   -1.4899   -0.6893 C   0  0  0  0  0  0
    6.7134   -0.3596   -0.1190 C   0  0  0  0  0  0
    5.9291    0.5651    0.5705 C   0  0  0  0  0  0
    4.5577    0.3589    0.6902 C   0  0  0  0  0  0
    8.4747   -0.0793   -0.2937 S   0  0  0  0  0  0
    8.6192    0.8969   -1.7637 N   0  0  0  0  0  0
    8.8899    0.7441    0.8487 O   0  0  0  0  0  0
    9.1130   -1.3783   -0.5398 O   0  0  0  0  0  0
    9.7629    1.8388   -1.8113 C   0  0  0  0  0  0
    9.5601    2.8302   -2.9823 C   0  0  0  0  0  0
    9.4272    2.0812   -4.2448 N   0  0  0  0  0  0
    8.2717    1.1683   -4.1941 C   0  0  0  0  0  0
    8.4719    0.1586   -3.0407 C   0  0  0  0  0  0
    9.2886    3.0049   -5.3657 C   0  0  0  0  0  0
   -2.4815    0.6322   -0.6450 H   0  0  0  0  0  0
   -2.2995   -0.5832   -1.8804 H   0  0  0  0  0  0
    0.0297   -0.9475   -1.3269 H   0  0  0  0  0  0
   -0.1499    0.6840   -1.6223 H   0  0  0  0  0  0
    0.1024   -1.6885    1.5936 H   0  0  0  0  0  0
   -0.0817   -0.3904    2.6152 H   0  0  0  0  0  0
   -2.1507   -1.8396    2.2275 H   0  0  0  0  0  0
   -2.4843   -0.1708    1.9026 H   0  0  0  0  0  0
   -3.4513   -1.5235    0.1127 H   0  0  0  0  0  0
   -1.9340   -2.3410   -0.1686 H   0  0  0  0  0  0
    2.1580    0.9563    0.1521 H   0  0  0  0  0  0
   -1.7183    1.2886    1.9058 H   0  0  0  0  0  0
   -2.3611    3.3517    2.6176 H   0  0  0  0  0  0
   -0.7377    3.9640    2.3540 H   0  0  0  0  0  0
    4.3222   -2.5744   -1.0248 H   0  0  0  0  0  0
    6.7271   -2.2087   -1.2283 H   0  0  0  0  0  0
    6.3754    1.4442    1.0120 H   0  0  0  0  0  0
    3.9751    1.0877    1.2356 H   0  0  0  0  0  0
    9.7933    2.4095   -0.8831 H   0  0  0  0  0  0
   10.6932    1.2943   -1.9816 H   0  0  0  0  0  0
    8.6180    3.3658   -2.8437 H   0  0  0  0  0  0
   10.3735    3.5559   -3.0292 H   0  0  0  0  0  0
    7.3946    1.7865   -3.9892 H   0  0  0  0  0  0
    8.1240    0.6543   -5.1452 H   0  0  0  0  0  0
    9.3729   -0.4217   -3.2472 H   0  0  0  0  0  0
    7.5906   -0.4796   -2.9794 H   0  0  0  0  0  0
    9.2221    2.4592   -6.3078 H   0  0  0  0  0  0
   10.1563    3.6628   -5.4305 H   0  0  0  0  0  0
    8.3965    3.6263   -5.2691 H   0  0  0  0  0  0
  1  2  1  0  0  0
  1  6  1  0  0  0
  1 32  1  0  0  0
  1 33  1  0  0  0
  2  3  1  0  0  0
  2 34  1  0  0  0
  2 35  1  0  0  0
  3  8  1  0  0  0
  3  4  1  0  0  0
  3  7  1  0  0  0
  4  5  1  0  0  0
  4 36  1  0  0  0
  4 37  1  0  0  0
  5  6  1  0  0  0
  5 38  1  0  0  0
  5 39  1  0  0  0
  6 40  1  0  0  0
  6 41  1  0  0  0
  7 14  1  0  0  0
  7 42  1  0  0  0
  8  9  1  0  0  0
  8 10  2  0  0  0
  9 11  1  0  0  0
  9 43  1  0  0  0
 11 12  1  0  0  0
 11 44  1  0  0  0
 11 45  1  0  0  0
 12 13  3  0  0  0
 14 16  2  0  0  0
 14 15  1  0  0  0
 15 17  2  0  0  0
 15 21  1  0  0  0
 17 18  1  0  0  0
 17 46  1  0  0  0
 18 19  2  0  0  0
 18 47  1  0  0  0
 19 20  1  0  0  0
 19 22  1  0  0  0
 20 21  2  0  0  0
 20 48  1  0  0  0
 21 49  1  0  0  0
 22 23  1  0  0  0
 22 24  2  0  0  0
 22 25  2  0  0  0
 23 26  1  0  0  0
 23 30  1  0  0  0
 26 27  1  0  0  0
 26 50  1  0  0  0
 26 51  1  0  0  0
 27 28  1  0  0  0
 27 52  1  0  0  0
 27 53  1  0  0  0
 28 29  1  0  0  0
 28 31  1  0  0  0
 29 30  1  0  0  0
 29 54  1  0  0  0
 29 55  1  0  0  0
 30 56  1  0  0  0
 30 57  1  0  0  0
 31 58  1  0  0  0
 31 59  1  0  0  0
 31 60  1  0  0  0
M  END
> <chembl_id>
CHEMBL199488

> <chembl_pref_name>
None

> <s_m_source_file>
sdf/inactives_sanitized.sdf

> <i_m_source_file_index>
324

> <i_lp_mmshare_version>
49012

> <i_m_ct_stereo_status>
1

> <i_f3d_flags>
0

> <s_epik_input>
W0NIMl0xW0NIMl1bQ0gyXVtDSDJdW0NIMl1DMShDKD1PKVtOSF1bQ0gyXUMjTilbTkhdQyg9TyljMltjSF1bY0hdYyhbY0hdW2NIXTIpUyg9TykoPU8pTjNbQ0gyXVtDSDJdTihbQ0gzXSlbQ0gyXVtDSDJdMw==

> <s_epik_cmdline>
J2VwaWtfcHl0aG9uJywgJy1waHQnLCAnMC41JywgJy1waCcsICc3LjUnLCAnLW50JywgJy1tYScsICcyMDAnLCAnLWltYWUnLCAnPGluZmlsZS5tYWU+JywgJy1vbWFlJywgJzxvdXRmaWxlLm1hZT4n

> <r_epik_Ionization_Penalty>
  0.0648

> <r_epik_Ionization_Penalty_Charging>
  0.0000

> <r_epik_Ionization_Penalty_Neutral>
  0.0648

> <r_epik_State_Penalty>
  0.0564

> <r_epik_Charging_Adjusted_Penalty>
0.0564218475209447

> <i_epik_Tot_Q>
0

> <i_epik_Tot_abs_Q>
0

> <s_lp_Force_Field>
OPLS3e

> <r_lp_Energy>
44.466298

> <b_lp_Chiralities_Consistent>
1

> <s_lp_Variant>
sdf/inactives_sanitized.sdf:324-1

$$$$
sdf/inactives_sanitized.sdf:325
                    3D
 Schrodinger Suite 2020-1.
 42 43  0  0  1  0            999 V2000
   -0.2051   -2.1778   -1.3337 C   0  0  0  0  0  0
   -0.5226   -0.6671   -1.2758 C   0  0  0  0  0  0
    0.0491    0.0337    0.0026 C   0  0  0  0  0  0
   -0.5588   -0.7318    1.2279 C   0  0  0  0  0  0
   -0.2325   -2.2407    1.2182 C   0  0  0  0  0  0
   -0.7174   -2.9118   -0.0803 C   0  0  0  0  0  0
    1.5300    0.0220   -0.0140 N   0  0  0  0  0  0
   -0.5151    1.4997    0.0056 C   0  0  0  0  0  0
   -0.3618    2.2224   -1.1217 N   0  0  0  0  0  0
   -0.9278    2.0216    1.0444 O   0  0  0  0  0  0
   -0.6824    3.6410   -1.2519 C   0  0  0  0  0  0
    0.2248    4.5001   -0.4708 C   0  0  0  0  0  0
    0.9380    5.1748    0.1416 N   0  0  0  0  0  0
    2.3939    0.6052    0.8478 C   0  0  0  0  0  0
    3.8647    0.3589    0.5877 C   0  0  0  0  0  0
    2.0340    1.3260    1.7802 O   0  0  0  0  0  0
    4.8211    1.2165    1.1494 C   0  0  0  0  0  0
    6.1795    1.0089    0.9251 C   0  0  0  0  0  0
    6.5976   -0.0634    0.1367 C   0  0  0  0  0  0
    5.6582   -0.9289   -0.4244 C   0  0  0  0  0  0
    4.3001   -0.7203   -0.1987 C   0  0  0  0  0  0
    8.0177   -0.2803   -0.1001 C   0  0  0  0  0  0
    9.2103   -0.4508   -0.3018 C   0  0  0  0  0  0
   -0.6520   -2.6174   -2.2263 H   0  0  0  0  0  0
    0.8715   -2.3277   -1.4293 H   0  0  0  0  0  0
   -0.0556   -0.2354   -2.1634 H   0  0  0  0  0  0
   -1.5907   -0.4774   -1.4071 H   0  0  0  0  0  0
   -1.6316   -0.5556    1.3334 H   0  0  0  0  0  0
   -0.1231   -0.3375    2.1479 H   0  0  0  0  0  0
    0.8433   -2.3878    1.3263 H   0  0  0  0  0  0
   -0.6929   -2.7262    2.0795 H   0  0  0  0  0  0
   -0.3994   -3.9547   -0.1027 H   0  0  0  0  0  0
   -1.8085   -2.9265   -0.0921 H   0  0  0  0  0  0
    1.9235   -0.7394   -0.5466 H   0  0  0  0  0  0
    0.0878    1.7893   -1.9147 H   0  0  0  0  0  0
   -1.7105    3.8386   -0.9442 H   0  0  0  0  0  0
   -0.6003    3.9285   -2.3001 H   0  0  0  0  0  0
    4.5218    2.0553    1.7623 H   0  0  0  0  0  0
    6.8971    1.6858    1.3674 H   0  0  0  0  0  0
    5.9700   -1.7654   -1.0343 H   0  0  0  0  0  0
    3.5971   -1.4115   -0.6409 H   0  0  0  0  0  0
   10.2524   -0.5968   -0.4787 H   0  0  0  0  0  0
  1  2  1  0  0  0
  1  6  1  0  0  0
  1 24  1  0  0  0
  1 25  1  0  0  0
  2  3  1  0  0  0
  2 26  1  0  0  0
  2 27  1  0  0  0
  3  7  1  0  0  0
  3  8  1  0  0  0
  3  4  1  0  0  0
  4  5  1  0  0  0
  4 28  1  0  0  0
  4 29  1  0  0  0
  5  6  1  0  0  0
  5 30  1  0  0  0
  5 31  1  0  0  0
  6 32  1  0  0  0
  6 33  1  0  0  0
  7 14  1  0  0  0
  7 34  1  0  0  0
  8  9  1  0  0  0
  8 10  2  0  0  0
  9 11  1  0  0  0
  9 35  1  0  0  0
 11 12  1  0  0  0
 11 36  1  0  0  0
 11 37  1  0  0  0
 12 13  3  0  0  0
 14 15  1  0  0  0
 14 16  2  0  0  0
 15 17  2  0  0  0
 15 21  1  0  0  0
 17 18  1  0  0  0
 17 38  1  0  0  0
 18 19  2  0  0  0
 18 39  1  0  0  0
 19 20  1  0  0  0
 19 22  1  0  0  0
 20 21  2  0  0  0
 20 40  1  0  0  0
 21 41  1  0  0  0
 22 23  3  0  0  0
 23 42  1  0  0  0
M  END
> <chembl_id>
CHEMBL200599

> <chembl_pref_name>
None

> <s_m_source_file>
sdf/inactives_sanitized.sdf

> <i_m_source_file_index>
325

> <i_lp_mmshare_version>
49012

> <i_m_ct_stereo_status>
1

> <i_f3d_flags>
0

> <s_epik_input>
W0NIMl0xW0NIMl1bQ0gyXVtDSDJdW0NIMl1DMShDKD1PKVtOSF1bQ0gyXUMjTilbTkhdQyg9TyljMltjSF1bY0hdYyhbY0hdW2NIXTIpQyNbQ0hd

> <s_epik_cmdline>
J2VwaWtfcHl0aG9uJywgJy1waHQnLCAnMC41JywgJy1waCcsICc3LjUnLCAnLW50JywgJy1tYScsICcyMDAnLCAnLWltYWUnLCAnPGluZmlsZS5tYWU+JywgJy1vbWFlJywgJzxvdXRmaWxlLm1hZT4n

> <r_lp_tautomer_probability>
1

> <r_epik_Ionization_Penalty>
  0.0000

> <r_epik_Ionization_Penalty_Charging>
  0.0000

> <r_epik_Ionization_Penalty_Neutral>
  0.0000

> <r_epik_State_Penalty>
 -0.0000

> <r_epik_Charging_Adjusted_Penalty>
0

> <i_epik_Tot_Q>
0

> <i_epik_Tot_abs_Q>
0

> <s_lp_Force_Field>
OPLS3e

> <r_lp_Energy>
35.085617

> <b_lp_Chiralities_Consistent>
1

> <s_lp_Variant>
sdf/inactives_sanitized.sdf:325-1

$$$$
sdf/inactives_sanitized.sdf:326
                    3D
 Schrodinger Suite 2020-1.
 63 67  0  0  1  0            999 V2000
   -2.5539   -3.7040    4.0438 C   0  0  0  0  0  0
   -2.0324   -3.1288    2.7162 C   0  0  2  0  0  0
   -0.4969   -2.8967    2.7401 C   0  0  0  0  0  0
   -0.0072   -2.2882    1.4073 C   0  0  0  0  0  0
   -0.7231   -0.9346    1.1565 C   0  0  2  0  0  0
   -2.2247   -1.2806    0.9755 C   0  0  0  0  0  0
   -2.7880   -1.8378    2.2996 C   0  0  0  0  0  0
   -0.1358   -0.1018   -0.0374 C   0  0  2  0  0  0
    1.3303   -0.0115   -0.0033 N   0  0  0  0  0  0
    2.1906   -0.6744   -0.8010 C   0  0  0  0  0  0
    1.8278   -1.4517   -1.6864 O   0  0  0  0  0  0
    3.6574   -0.3827   -0.5816 C   0  0  0  0  0  0
    4.1372    0.0791    0.6554 C   0  0  0  0  0  0
    5.4938    0.3413    0.8399 C   0  0  0  0  0  0
    6.3930    0.1462   -0.2058 C   0  0  0  0  0  0
    5.9383   -0.3173   -1.4454 C   0  0  0  0  0  0
    4.5741   -0.5821   -1.6253 C   0  0  0  0  0  0
    6.8483   -0.5158   -2.5058 N   0  0  0  0  0  0
    8.1708   -0.8873   -2.4347 C   0  0  0  0  0  0
    8.6269   -0.9389   -3.7422 C   0  0  0  0  0  0
    7.6793   -0.6217   -4.6039 N   0  0  0  0  0  0
    6.6283   -0.3718   -3.8594 C   0  0  0  0  0  0
   -0.7139    1.3390   -0.1707 C   0  0  0  0  0  0
   -1.3468    1.8003    0.7818 O   0  0  0  0  0  0
   -0.4616    2.0681   -1.2948 N   0  0  0  0  0  0
    0.1733    1.5062   -2.5028 C   0  0  0  0  0  0
   -0.3372    2.4032   -3.6287 C   0  0  2  0  0  0
    0.5844    2.5218   -4.5854 F   0  0  0  0  0  0
   -0.5981    3.7454   -2.9588 C   0  0  1  0  0  0
   -1.6235    4.5316   -3.5457 O   0  0  0  0  0  0
   -2.8738    4.1155   -3.0216 C   0  0  0  0  0  0
   -2.5824    3.5487   -1.6408 C   0  0  0  0  0  0
   -3.4173    3.2269   -0.7977 O   0  0  0  0  0  0
   -1.0592    3.4024   -1.5454 C   0  0  1  0  0  0
   -2.3889   -3.0113    4.8699 H   0  0  0  0  0  0
   -2.0533   -4.6406    4.2914 H   0  0  0  0  0  0
   -3.6235   -3.9097    3.9915 H   0  0  0  0  0  0
   -2.2194   -3.8609    1.9280 H   0  0  0  0  0  0
   -0.2388   -2.2313    3.5661 H   0  0  0  0  0  0
    0.0223   -3.8314    2.9561 H   0  0  0  0  0  0
    1.0703   -2.1424    1.4802 H   0  0  0  0  0  0
   -0.1293   -2.9640    0.5591 H   0  0  0  0  0  0
   -0.5877   -0.3241    2.0528 H   0  0  0  0  0  0
   -2.7920   -0.3880    0.7128 H   0  0  0  0  0  0
   -2.3799   -1.9535    0.1304 H   0  0  0  0  0  0
   -2.7013   -1.0866    3.0866 H   0  0  0  0  0  0
   -3.8570   -2.0375    2.2144 H   0  0  0  0  0  0
   -0.4462   -0.6434   -0.9320 H   0  0  0  0  0  0
    1.7038    0.6196    0.6903 H   0  0  0  0  0  0
    3.4683    0.2352    1.4897 H   0  0  0  0  0  0
    5.8487    0.6962    1.7962 H   0  0  0  0  0  0
    7.4395    0.3624   -0.0450 H   0  0  0  0  0  0
    4.2255   -0.9453   -2.5823 H   0  0  0  0  0  0
    8.6548   -1.0820   -1.4889 H   0  0  0  0  0  0
    9.6250   -1.2005   -4.0616 H   0  0  0  0  0  0
    5.6570   -0.0686   -4.2218 H   0  0  0  0  0  0
    1.2558    1.6313   -2.4473 H   0  0  0  0  0  0
   -0.1183    0.4817   -2.7344 H   0  0  0  0  0  0
   -1.2442    1.9901   -4.0731 H   0  0  0  0  0  0
    0.3231    4.3302   -2.9188 H   0  0  0  0  0  0
   -3.5718    4.9515   -2.9769 H   0  0  0  0  0  0
   -3.3042    3.3395   -3.6554 H   0  0  0  0  0  0
   -0.6779    4.1311   -0.8290 H   0  0  0  0  0  0
  1  2  1  0  0  0
  1 35  1  0  0  0
  1 36  1  0  0  0
  1 37  1  0  0  0
  2  3  1  0  0  0
  2  7  1  0  0  0
  2 38  1  0  0  0
  3  4  1  0  0  0
  3 39  1  0  0  0
  3 40  1  0  0  0
  4  5  1  0  0  0
  4 41  1  0  0  0
  4 42  1  0  0  0
  5  6  1  0  0  0
  5  8  1  0  0  0
  5 43  1  0  0  0
  6  7  1  0  0  0
  6 44  1  0  0  0
  6 45  1  0  0  0
  7 46  1  0  0  0
  7 47  1  0  0  0
  8  9  1  0  0  0
  8 23  1  0  0  0
  8 48  1  0  0  0
  9 10  1  0  0  0
  9 49  1  0  0  0
 10 11  2  0  0  0
 10 12  1  0  0  0
 12 13  2  0  0  0
 12 17  1  0  0  0
 13 14  1  0  0  0
 13 50  1  0  0  0
 14 15  2  0  0  0
 14 51  1  0  0  0
 15 16  1  0  0  0
 15 52  1  0  0  0
 16 17  2  0  0  0
 16 18  1  0  0  0
 17 53  1  0  0  0
 18 19  1  0  0  0
 18 22  1  0  0  0
 19 20  2  0  0  0
 19 54  1  0  0  0
 20 21  1  0  0  0
 20 55  1  0  0  0
 21 22  2  0  0  0
 22 56  1  0  0  0
 23 24  2  0  0  0
 23 25  1  0  0  0
 25 26  1  0  0  0
 25 34  1  0  0  0
 26 27  1  0  0  0
 26 57  1  0  0  0
 26 58  1  0  0  0
 27 28  1  0  0  0
 27 29  1  0  0  0
 27 59  1  0  0  0
 29 30  1  0  0  0
 29 34  1  0  0  0
 29 60  1  0  0  0
 30 31  1  0  0  0
 31 32  1  0  0  0
 31 61  1  0  0  0
 31 62  1  0  0  0
 32 33  2  0  0  0
 32 34  1  0  0  0
 34 63  1  0  0  0
M  END
> <chembl_id>
CHEMBL3648413

> <chembl_pref_name>
None

> <i_m_ct_stereo_status>
1

> <s_m_source_file>
sdf/inactives_sanitized.sdf

> <i_m_source_file_index>
326

> <i_lp_mmshare_version>
49012

> <i_f3d_flags>
0

> <s_epik_input>
TzFbQ0gyXUMoPU8pW0NASF0oW0NASF0xMilOKFtDSDJdW0NAQEhdMkYpQyg9TylbQ0BIXShbQ0BASF0oW0NIMl1bQ0gyXTMpW0NIMl1bQ0gyXVtDQEhdM1tDSDNdKVtOSF1DKD1PKWM0W2NIXVtjSF1bY0hdYyhbY0hdNCktbjVbY0hdW2NIXW5bY0hdNQ==

> <s_epik_cmdline>
J2VwaWtfcHl0aG9uJywgJy1waHQnLCAnMC41JywgJy1waCcsICc3LjUnLCAnLW50JywgJy1tYScsICcyMDAnLCAnLWltYWUnLCAnPGluZmlsZS5tYWU+JywgJy1vbWFlJywgJzxvdXRmaWxlLm1hZT4n

> <r_lp_tautomer_probability>
1

> <r_epik_Ionization_Penalty>
  0.0070

> <r_epik_Ionization_Penalty_Charging>
  0.0070

> <r_epik_Ionization_Penalty_Neutral>
  0.0000

> <r_epik_State_Penalty>
 -0.0000

> <r_epik_Charging_Adjusted_Penalty>
0.00700018974734806

> <i_epik_Tot_Q>
0

> <i_epik_Tot_abs_Q>
0

> <s_lp_Force_Field>
OPLS3e

> <r_lp_Energy>
36.310886

> <b_lp_Chiralities_Consistent>
1

> <s_lp_Variant>
sdf/inactives_sanitized.sdf:326-1

$$$$
sdf/inactives_sanitized.sdf:327
                    3D
 Schrodinger Suite 2020-1.
 41 43  0  0  1  0            999 V2000
   -0.8535    0.9167    0.1586 C   0  0  0  0  0  0
   -1.6039    1.2292   -0.9807 C   0  0  0  0  0  0
   -2.3408    2.4095   -1.0396 C   0  0  0  0  0  0
   -2.3323    3.2877    0.0403 C   0  0  0  0  0  0
   -1.5865    2.9866    1.1788 C   0  0  0  0  0  0
   -0.8366    1.7987    1.2541 C   0  0  0  0  0  0
   -0.0486   -0.3780    0.1836 C   0  0  0  0  0  0
    1.7441   -0.0558    0.0670 S   0  0  0  0  0  0
    2.4399   -1.7150    0.2325 C   0  0  0  0  0  0
    3.7327   -1.7367    0.2242 N   0  5  0  0  0  0
    4.3769   -2.9223    0.3437 C   0  0  0  0  0  0
    3.5811   -4.1089    0.4784 N   0  0  0  0  0  0
    2.2907   -3.9706    0.4755 C   0  0  0  0  0  0
    1.6379   -2.7341    0.3450 N   0  0  0  0  0  0
    5.6045   -2.9774    0.3367 O   0  0  0  0  0  0
    1.3234   -5.4836    0.6554 S   0  0  0  0  0  0
   -0.3810   -4.8436    0.5882 C   0  0  0  0  0  0
   -1.3896   -5.9712    0.7313 C   0  0  0  0  0  0
   -1.8281   -6.6623   -0.4016 C   0  0  0  0  0  0
   -2.7566   -7.6918   -0.2714 C   0  0  0  0  0  0
   -3.2465   -8.0238    0.9902 C   0  0  0  0  0  0
   -2.8173   -7.3350    2.1229 C   0  0  0  0  0  0
   -1.8883   -6.3057    1.9934 C   0  0  0  0  0  0
   -0.0792    1.4403    2.3560 O   0  0  0  0  0  0
   -0.0099    2.3167    3.4750 C   0  0  0  0  0  0
   -1.6154    0.5581   -1.8274 H   0  0  0  0  0  0
   -2.9169    2.6441   -1.9226 H   0  0  0  0  0  0
   -2.9033    4.2033   -0.0043 H   0  0  0  0  0  0
   -1.6046    3.6910    1.9963 H   0  0  0  0  0  0
   -0.2784   -0.9149    1.1052 H   0  0  0  0  0  0
   -0.3538   -1.0302   -0.6363 H   0  0  0  0  0  0
   -0.5364   -4.1091    1.3804 H   0  0  0  0  0  0
   -0.5462   -4.3250   -0.3579 H   0  0  0  0  0  0
   -1.4469   -6.4060   -1.3795 H   0  0  0  0  0  0
   -3.0947   -8.2308   -1.1443 H   0  0  0  0  0  0
   -3.9660   -8.8231    1.0908 H   0  0  0  0  0  0
   -3.2028   -7.5985    3.0969 H   0  0  0  0  0  0
   -1.5548   -5.7728    2.8722 H   0  0  0  0  0  0
    0.6428    1.8816    4.2316 H   0  0  0  0  0  0
   -0.9908    2.4633    3.9296 H   0  0  0  0  0  0
    0.4070    3.2864    3.1988 H   0  0  0  0  0  0
  1  6  1  0  0  0
  1  2  2  0  0  0
  1  7  1  0  0  0
  2  3  1  0  0  0
  2 26  1  0  0  0
  3  4  2  0  0  0
  3 27  1  0  0  0
  4  5  1  0  0  0
  4 28  1  0  0  0
  5  6  2  0  0  0
  5 29  1  0  0  0
  6 24  1  0  0  0
  7  8  1  0  0  0
  7 30  1  0  0  0
  7 31  1  0  0  0
  8  9  1  0  0  0
  9 14  2  0  0  0
  9 10  1  0  0  0
 10 11  1  0  0  0
 11 15  2  0  0  0
 11 12  1  0  0  0
 12 13  2  0  0  0
 13 14  1  0  0  0
 13 16  1  0  0  0
 16 17  1  0  0  0
 17 18  1  0  0  0
 17 32  1  0  0  0
 17 33  1  0  0  0
 18 19  2  0  0  0
 18 23  1  0  0  0
 19 20  1  0  0  0
 19 34  1  0  0  0
 20 21  2  0  0  0
 20 35  1  0  0  0
 21 22  1  0  0  0
 21 36  1  0  0  0
 22 23  2  0  0  0
 22 37  1  0  0  0
 23 38  1  0  0  0
 24 25  1  0  0  0
 25 39  1  0  0  0
 25 40  1  0  0  0
 25 41  1  0  0  0
M  CHG  1  10  -1
M  END
> <chembl_id>
CHEMBL1836460

> <chembl_pref_name>
None

> <s_m_source_file>
sdf/inactives_sanitized.sdf

> <i_m_source_file_index>
327

> <i_lp_mmshare_version>
49012

> <i_m_ct_stereo_status>
1

> <i_f3d_flags>
0

> <s_epik_input>
W0NIM11PYzFbY0hdW2NIXVtjSF1bY0hdYzFbQ0gyXVNjMltuSF1jKD1PKW5jKG4yKVNbQ0gyXWMzW2NIXVtjSF1bY0hdW2NIXVtjSF0z

> <s_epik_cmdline>
J2VwaWtfcHl0aG9uJywgJy1waHQnLCAnMC41JywgJy1waCcsICc3LjUnLCAnLW50JywgJy1tYScsICcyMDAnLCAnLWltYWUnLCAnPGluZmlsZS5tYWU+JywgJy1vbWFlJywgJzxvdXRmaWxlLm1hZT4n

> <r_lp_tautomer_probability>
1

> <r_epik_Ionization_Penalty>
  0.3245

> <r_epik_Ionization_Penalty_Charging>
  0.0003

> <r_epik_Ionization_Penalty_Neutral>
  0.3241

> <r_epik_State_Penalty>
 -0.0000

> <r_epik_Charging_Adjusted_Penalty>
0.000330722952361958

> <i_epik_Tot_Q>
-1

> <i_epik_Tot_abs_Q>
1

> <s_lp_Force_Field>
OPLS3e

> <r_lp_Energy>
45.114815

> <b_lp_Chiralities_Consistent>
1

> <s_lp_Variant>
sdf/inactives_sanitized.sdf:327-1

$$$$
sdf/inactives_sanitized.sdf:328
                    3D
 Schrodinger Suite 2020-1.
 27 28  0  0  1  0            999 V2000
   -0.7068   -1.2828   -0.2512 N   0  0  0  0  0  0
   -0.0064   -0.1270   -0.0937 C   0  0  0  0  0  0
   -0.6496    1.0927    0.1255 C   0  0  0  0  0  0
   -2.0382    1.1351    0.1787 C   0  0  0  0  0  0
   -2.7993   -0.0543    0.0069 C   0  0  0  0  0  0
   -4.2293   -0.0842    0.0478 C   0  0  0  0  0  0
   -4.8899   -1.3048   -0.0926 C   0  0  0  0  0  0
   -4.1906   -2.4868   -0.2898 C   0  0  0  0  0  0
   -2.7999   -2.4970   -0.3514 C   0  0  0  0  0  0
   -2.0749   -1.2732   -0.2009 C   0  0  0  0  0  0
    1.5066   -0.1937   -0.1557 C   0  0  0  0  0  0
    2.1906    0.8226   -0.0172 O   0  0  0  0  0  0
    2.0570   -1.4049   -0.3731 N   0  0  0  0  0  0
   -5.0342    1.1374    0.2314 N   0  3  0  0  0  0
   -5.8668    1.1420    1.1326 O   0  0  0  0  0  0
   -4.8548    2.0714   -0.5435 O   0  5  0  0  0  0
   -2.2176   -3.6147   -0.5388 O   0  5  0  0  0  0
    3.4919   -1.6727   -0.4171 C   0  0  0  0  0  0
    4.1573   -1.4471    0.8783 C   0  0  0  0  0  0
    4.6801   -1.2706    1.8955 N   0  0  0  0  0  0
   -0.0898    2.0080    0.2571 H   0  0  0  0  0  0
   -2.5290    2.0793    0.3583 H   0  0  0  0  0  0
   -5.9695   -1.3382   -0.0592 H   0  0  0  0  0  0
   -4.7476   -3.4069   -0.3996 H   0  0  0  0  0  0
    1.4447   -2.2069   -0.4202 H   0  0  0  0  0  0
    3.9773   -1.0583   -1.1770 H   0  0  0  0  0  0
    3.6495   -2.7138   -0.6987 H   0  0  0  0  0  0
  1  2  2  0  0  0
  1 10  1  0  0  0
  2  3  1  0  0  0
  2 11  1  0  0  0
  3  4  2  0  0  0
  3 21  1  0  0  0
  4  5  1  0  0  0
  4 22  1  0  0  0
  5  6  2  0  0  0
  5 10  1  0  0  0
  6  7  1  0  0  0
  6 14  1  0  0  0
  7  8  2  0  0  0
  7 23  1  0  0  0
  8  9  1  0  0  0
  8 24  1  0  0  0
  9 10  2  0  0  0
  9 17  1  0  0  0
 11 12  2  0  0  0
 11 13  1  0  0  0
 13 18  1  0  0  0
 13 25  1  0  0  0
 14 15  2  0  0  0
 14 16  1  0  0  0
 18 19  1  0  0  0
 18 26  1  0  0  0
 18 27  1  0  0  0
 19 20  3  0  0  0
M  CHG  3  14   1  16  -1  17  -1
M  END
> <chembl_id>
CHEMBL4227750

> <chembl_pref_name>
None

> <s_m_source_file>
sdf/inactives_sanitized.sdf

> <i_m_source_file_index>
328

> <i_lp_mmshare_version>
49012

> <i_m_ct_stereo_status>
1

> <i_f3d_flags>
0

> <s_epik_input>
TiNDW0NIMl1bTkhdQyg9TyljKFtjSF1bY0hdMSluYyhjMTIpYyhbT0hdKVtjSF1bY0hdYzJbTitdKD1PKVtPLV0=

> <s_epik_cmdline>
J2VwaWtfcHl0aG9uJywgJy1waHQnLCAnMC41JywgJy1waCcsICc3LjUnLCAnLW50JywgJy1tYScsICcyMDAnLCAnLWltYWUnLCAnPGluZmlsZS5tYWU+JywgJy1vbWFlJywgJzxvdXRmaWxlLm1hZT4n

> <r_lp_tautomer_probability>
1

> <r_epik_Ionization_Penalty>
  0.0002

> <r_epik_Ionization_Penalty_Charging>
  0.0002

> <r_epik_Ionization_Penalty_Neutral>
  0.0000

> <r_epik_State_Penalty>
 -0.0000

> <r_epik_Charging_Adjusted_Penalty>
0.000191096731372123

> <i_epik_Tot_Q>
-1

> <i_epik_Tot_abs_Q>
3

> <s_lp_Force_Field>
OPLS3e

> <r_lp_Energy>
24.639571

> <b_lp_Chiralities_Consistent>
1

> <s_lp_Variant>
sdf/inactives_sanitized.sdf:328-1

$$$$
sdf/inactives_sanitized.sdf:329
                    3D
 Schrodinger Suite 2020-1.
 26 27  0  0  1  0            999 V2000
    0.0517    0.1876    0.0743 C   0  0  0  0  0  0
    1.5795    0.1659    0.0359 C   0  0  0  0  0  0
    2.4113    1.3176   -0.0214 C   0  0  0  0  0  0
    3.8001    1.1769   -0.0602 C   0  0  0  0  0  0
    4.3916   -0.0805   -0.0416 C   0  0  0  0  0  0
    3.6065   -1.2350    0.0189 C   0  0  0  0  0  0
    2.2127   -1.0912    0.0582 C   0  0  0  0  0  0
   -0.5899   -0.8597    0.1881 O   0  0  0  0  0  0
   -0.5720    1.3736   -0.0427 N   0  0  0  0  0  0
    4.2355   -2.5789    0.0409 N   0  3  0  0  0  0
    3.5113   -3.5685    0.1039 O   0  0  0  0  0  0
    5.4603   -2.6557   -0.0045 O   0  5  0  0  0  0
    1.9771    2.5149   -0.0355 O   0  5  0  0  0  0
   -2.0196    1.5655   -0.0135 C   0  0  0  0  0  0
   -2.6328    2.4862   -1.0473 C   0  0  0  0  0  0
   -2.8438    0.9991   -1.1557 C   0  0  0  0  0  0
   -2.6247    1.5161    1.3295 C   0  0  0  0  0  0
   -3.1007    1.4778    2.3838 N   0  0  0  0  0  0
    4.4398    2.0478   -0.1038 H   0  0  0  0  0  0
    5.4694   -0.1465   -0.0727 H   0  0  0  0  0  0
    1.6116   -1.9885    0.1024 H   0  0  0  0  0  0
   -0.0038    2.2088   -0.0024 H   0  0  0  0  0  0
   -3.4764    3.1136   -0.7583 H   0  0  0  0  0  0
   -1.9830    2.9721   -1.7762 H   0  0  0  0  0  0
   -3.8327    0.5938   -0.9390 H   0  0  0  0  0  0
   -2.3398    0.4596   -1.9584 H   0  0  0  0  0  0
  1  2  1  0  0  0
  1  8  2  0  0  0
  1  9  1  0  0  0
  2  3  2  0  0  0
  2  7  1  0  0  0
  3  4  1  0  0  0
  3 13  1  0  0  0
  4  5  2  0  0  0
  4 19  1  0  0  0
  5  6  1  0  0  0
  5 20  1  0  0  0
  6  7  2  0  0  0
  6 10  1  0  0  0
  7 21  1  0  0  0
  9 14  1  0  0  0
  9 22  1  0  0  0
 10 11  2  0  0  0
 10 12  1  0  0  0
 14 15  1  0  0  0
 14 16  1  0  0  0
 14 17  1  0  0  0
 15 16  1  0  0  0
 15 23  1  0  0  0
 15 24  1  0  0  0
 16 25  1  0  0  0
 16 26  1  0  0  0
 17 18  3  0  0  0
M  CHG  3  10   1  12  -1  13  -1
M  END
> <chembl_id>
CHEMBL4227676

> <chembl_pref_name>
None

> <s_m_source_file>
sdf/inactives_sanitized.sdf

> <i_m_source_file_index>
329

> <i_lp_mmshare_version>
49012

> <i_m_ct_stereo_status>
1

> <i_f3d_flags>
0

> <s_epik_input>
W0NIMl0xW0NIMl1DMShDI04pW05IXUMoPU8pYzJjKFtPSF0pW2NIXVtjSF1jKFtjSF0yKVtOK10oPU8pW08tXQ==

> <s_epik_cmdline>
J2VwaWtfcHl0aG9uJywgJy1waHQnLCAnMC41JywgJy1waCcsICc3LjUnLCAnLW50JywgJy1tYScsICcyMDAnLCAnLWltYWUnLCAnPGluZmlsZS5tYWU+JywgJy1vbWFlJywgJzxvdXRmaWxlLm1hZT4n

> <r_lp_tautomer_probability>
1

> <r_epik_Ionization_Penalty>
  0.0021

> <r_epik_Ionization_Penalty_Charging>
  0.0021

> <r_epik_Ionization_Penalty_Neutral>
  0.0000

> <r_epik_State_Penalty>
 -0.0000

> <r_epik_Charging_Adjusted_Penalty>
0.00212461854886357

> <i_epik_Tot_Q>
-1

> <i_epik_Tot_abs_Q>
3

> <s_lp_Force_Field>
OPLS3e

> <r_lp_Energy>
18.864671

> <b_lp_Chiralities_Consistent>
1

> <s_lp_Variant>
sdf/inactives_sanitized.sdf:329-1

$$$$
sdf/inactives_sanitized.sdf:330
                    3D
 Schrodinger Suite 2020-1.
 41 43  0  0  1  0            999 V2000
   -4.3297   -2.2990   -0.3224 C   0  0  0  0  0  0
   -5.0592   -1.1377   -0.1143 C   0  0  0  0  0  0
   -4.3725    0.0525    0.0955 C   0  0  0  0  0  0
   -2.9780   -2.3343   -0.3384 N   0  0  0  0  0  0
   -2.2714   -1.1759   -0.1370 C   0  0  0  0  0  0
   -2.9474    0.0671    0.0993 C   0  0  0  0  0  0
   -2.1808    1.2529    0.3094 C   0  0  0  0  0  0
   -0.7907    1.1833    0.2585 C   0  0  0  0  0  0
   -0.1156   -0.0108    0.0230 C   0  0  0  0  0  0
   -0.8380   -1.2005   -0.1695 C   0  0  0  0  0  0
   -0.2099   -2.2910   -0.3878 O   0  5  0  0  0  0
   -2.8107    2.5578    0.5824 N   0  3  0  0  0  0
   -2.4854    3.5065   -0.1244 O   0  0  0  0  0  0
   -3.5984    2.6366    1.5196 O   0  5  0  0  0  0
    1.4164    0.0369    0.0049 C   0  0  0  0  0  0
    2.0277    0.6734   -1.2729 N   0  3  2  0  0  0
    1.6283   -0.1893   -2.5006 C   0  0  0  0  0  0
    2.1654    0.4457   -3.7921 C   0  0  0  0  0  0
    3.6865    0.6282   -3.7432 C   0  0  0  0  0  0
    4.0997    1.4482   -2.5123 C   0  0  0  0  0  0
    3.5749    0.8565   -1.1804 C   0  0  1  0  0  0
    3.9191    1.7952   -0.0026 C   0  0  0  0  0  0
   -4.8338   -3.2396   -0.4875 H   0  0  0  0  0  0
   -6.1392   -1.1579   -0.1166 H   0  0  0  0  0  0
   -4.9323    0.9626    0.2480 H   0  0  0  0  0  0
   -0.2177    2.0869    0.4146 H   0  0  0  0  0  0
    1.7443    0.6444    0.8457 H   0  0  0  0  0  0
    1.8892   -0.9419    0.1017 H   0  0  0  0  0  0
    2.0293   -1.1907   -2.3334 H   0  0  0  0  0  0
    0.5397   -0.2395   -2.5291 H   0  0  0  0  0  0
    1.8970   -0.1796   -4.6445 H   0  0  0  0  0  0
    1.6793    1.4086   -3.9559 H   0  0  0  0  0  0
    4.1743   -0.3476   -3.7170 H   0  0  0  0  0  0
    4.0329    1.1198   -4.6532 H   0  0  0  0  0  0
    5.1884    1.5139   -2.4833 H   0  0  0  0  0  0
    3.7307    2.4685   -2.6331 H   0  0  0  0  0  0
    3.9863   -0.1418   -1.0167 H   0  0  0  0  0  0
    4.9691    2.0878   -0.0359 H   0  0  0  0  0  0
    3.7749    1.3183    0.9661 H   0  0  0  0  0  0
    3.3264    2.7108   -0.0271 H   0  0  0  0  0  0
    1.6163    1.5862   -1.4061 H   0  0  0  0  0  0
  1  2  2  0  0  0
  1  4  1  0  0  0
  1 23  1  0  0  0
  2  3  1  0  0  0
  2 24  1  0  0  0
  3  6  2  0  0  0
  3 25  1  0  0  0
  4  5  2  0  0  0
  5  6  1  0  0  0
  5 10  1  0  0  0
  6  7  1  0  0  0
  7  8  2  0  0  0
  7 12  1  0  0  0
  8  9  1  0  0  0
  8 26  1  0  0  0
  9 10  2  0  0  0
  9 15  1  0  0  0
 10 11  1  0  0  0
 12 13  2  0  0  0
 12 14  1  0  0  0
 15 16  1  0  0  0
 15 27  1  0  0  0
 15 28  1  0  0  0
 16 17  1  0  0  0
 16 21  1  0  0  0
 16 41  1  0  0  0
 17 18  1  0  0  0
 17 29  1  0  0  0
 17 30  1  0  0  0
 18 19  1  0  0  0
 18 31  1  0  0  0
 18 32  1  0  0  0
 19 20  1  0  0  0
 19 33  1  0  0  0
 19 34  1  0  0  0
 20 21  1  0  0  0
 20 35  1  0  0  0
 20 36  1  0  0  0
 21 22  1  0  0  0
 21 37  1  0  0  0
 22 38  1  0  0  0
 22 39  1  0  0  0
 22 40  1  0  0  0
M  CHG  4  11  -1  12   1  14  -1  16   1
M  END
> <chembl_id>
CHEMBL2312217

> <chembl_pref_name>
None

> <i_m_ct_stereo_status>
1

> <s_m_source_file>
sdf/inactives_sanitized.sdf

> <i_m_source_file_index>
330

> <i_lp_mmshare_version>
49012

> <i_f3d_flags>
0

> <s_epik_input>
bjFbY0hdW2NIXVtjSF1jKGMxMiljKFtOK10oPU8pW08tXSlbY0hdYyhjMltPSF0pW0NIMl1OM1tDSDJdW0NIMl1bQ0gyXVtDSDJdW0NASF0zW0NIM10=

> <s_epik_cmdline>
J2VwaWtfcHl0aG9uJywgJy1waHQnLCAnMC41JywgJy1waCcsICc3LjUnLCAnLW50JywgJy1tYScsICcyMDAnLCAnLWltYWUnLCAnPGluZmlsZS5tYWU+JywgJy1vbWFlJywgJzxvdXRmaWxlLm1hZT4n

> <r_epik_Ionization_Penalty>
  0.0252

> <r_epik_Ionization_Penalty_Charging>
  0.0252

> <r_epik_Ionization_Penalty_Neutral>
  0.0000

> <r_epik_State_Penalty>
  0.0205

> <r_epik_Charging_Adjusted_Penalty>
0.0456996675531352

> <i_epik_Tot_Q>
0

> <i_epik_Tot_abs_Q>
4

> <s_lp_Force_Field>
OPLS3e

> <r_lp_Energy>
37.840839

> <b_lp_Chiralities_Consistent>
1

> <s_lp_Variant>
sdf/inactives_sanitized.sdf:330-1

$$$$
sdf/inactives_sanitized.sdf:331
                    3D
 Schrodinger Suite 2020-1.
 39 41  0  0  1  0            999 V2000
   -1.2713    2.3859    0.5865 C   0  0  0  0  0  0
   -1.4756    3.4714   -0.2756 C   0  0  0  0  0  0
   -2.7556    3.9628   -0.5177 C   0  0  0  0  0  0
   -3.8530    3.3699    0.0970 C   0  0  0  0  0  0
   -3.6674    2.2898    0.9564 C   0  0  0  0  0  0
   -2.3849    1.7864    1.2230 C   0  0  0  0  0  0
    0.1596    1.8790    0.7572 C   0  0  0  0  0  0
    0.4053    0.2930   -0.1030 S   0  0  0  0  0  0
    2.1670   -0.0187    0.1543 C   0  0  0  0  0  0
    2.5532   -1.1535   -0.3303 N   0  5  0  0  0  0
    3.8487   -1.5241   -0.2019 C   0  0  0  0  0  0
    4.7485   -0.6056    0.4332 N   0  0  0  0  0  0
    4.2593    0.5165    0.8645 C   0  0  0  0  0  0
    2.8976    0.8564    0.7877 N   0  0  0  0  0  0
    4.2399   -2.6101   -0.6233 O   0  0  0  0  0  0
    5.4674    1.6812    1.5337 S   0  0  0  0  0  0
    4.4394    3.0779    2.1109 C   0  0  0  0  0  0
    3.6352    2.7667    3.3699 C   0  0  0  0  0  0
    2.2716    3.0682    3.4099 C   0  0  0  0  0  0
    1.5253    2.7843    4.5503 C   0  0  0  0  0  0
    2.1482    2.2101    5.6560 C   0  0  0  0  0  0
    3.5109    1.9217    5.6325 C   0  0  0  0  0  0
    4.2558    2.2033    4.4903 C   0  0  0  0  0  0
   -2.2610    0.6360    2.1483 N   0  3  0  0  0  0
   -1.3511    0.6267    2.9700 O   0  0  0  0  0  0
   -3.1110   -0.2472    2.0796 O   0  5  0  0  0  0
   -0.6374    3.9362   -0.7744 H   0  0  0  0  0  0
   -2.8969    4.7985   -1.1873 H   0  0  0  0  0  0
   -4.8477    3.7456   -0.0927 H   0  0  0  0  0  0
   -4.5332    1.8453    1.4259 H   0  0  0  0  0  0
    0.8632    2.6081    0.3517 H   0  0  0  0  0  0
    0.4082    1.7735    1.8099 H   0  0  0  0  0  0
    5.1115    3.9049    2.3402 H   0  0  0  0  0  0
    3.7987    3.4170    1.2955 H   0  0  0  0  0  0
    1.7878    3.5215    2.5575 H   0  0  0  0  0  0
    0.4691    3.0085    4.5768 H   0  0  0  0  0  0
    1.5699    1.9891    6.5411 H   0  0  0  0  0  0
    3.9876    1.4803    6.4954 H   0  0  0  0  0  0
    5.3123    1.9782    4.4763 H   0  0  0  0  0  0
  1  2  2  0  0  0
  1  7  1  0  0  0
  1  6  1  0  0  0
  2  3  1  0  0  0
  2 27  1  0  0  0
  3  4  2  0  0  0
  3 28  1  0  0  0
  4  5  1  0  0  0
  4 29  1  0  0  0
  5  6  2  0  0  0
  5 30  1  0  0  0
  6 24  1  0  0  0
  7  8  1  0  0  0
  7 31  1  0  0  0
  7 32  1  0  0  0
  8  9  1  0  0  0
  9 14  2  0  0  0
  9 10  1  0  0  0
 10 11  1  0  0  0
 11 15  2  0  0  0
 11 12  1  0  0  0
 12 13  2  0  0  0
 13 14  1  0  0  0
 13 16  1  0  0  0
 16 17  1  0  0  0
 17 18  1  0  0  0
 17 33  1  0  0  0
 17 34  1  0  0  0
 18 19  2  0  0  0
 18 23  1  0  0  0
 19 20  1  0  0  0
 19 35  1  0  0  0
 20 21  2  0  0  0
 20 36  1  0  0  0
 21 22  1  0  0  0
 21 37  1  0  0  0
 22 23  2  0  0  0
 22 38  1  0  0  0
 23 39  1  0  0  0
 24 25  2  0  0  0
 24 26  1  0  0  0
M  CHG  3  10  -1  24   1  26  -1
M  END
> <chembl_id>
CHEMBL1836466

> <chembl_pref_name>
None

> <s_m_source_file>
sdf/inactives_sanitized.sdf

> <i_m_source_file_index>
331

> <i_lp_mmshare_version>
49012

> <i_m_ct_stereo_status>
1

> <i_f3d_flags>
0

> <s_epik_input>
Tz1bTitdKFtPLV0pYzFbY0hdW2NIXVtjSF1bY0hdYzFbQ0gyXVNjMltuSF1jKD1PKW5jKG4yKVNbQ0gyXWMzW2NIXVtjSF1bY0hdW2NIXVtjSF0z

> <s_epik_cmdline>
J2VwaWtfcHl0aG9uJywgJy1waHQnLCAnMC41JywgJy1waCcsICc3LjUnLCAnLW50JywgJy1tYScsICcyMDAnLCAnLWltYWUnLCAnPGluZmlsZS5tYWU+JywgJy1vbWFlJywgJzxvdXRmaWxlLm1hZT4n

> <r_lp_tautomer_probability>
1

> <r_epik_Ionization_Penalty>
  0.3258

> <r_epik_Ionization_Penalty_Charging>
  0.0003

> <r_epik_Ionization_Penalty_Neutral>
  0.3254

> <r_epik_State_Penalty>
 -0.0000

> <r_epik_Charging_Adjusted_Penalty>
0.000330722952361958

> <i_epik_Tot_Q>
-1

> <i_epik_Tot_abs_Q>
3

> <s_lp_Force_Field>
OPLS3e

> <r_lp_Energy>
50.341039

> <b_lp_Chiralities_Consistent>
1

> <s_lp_Variant>
sdf/inactives_sanitized.sdf:331-1

$$$$
sdf/inactives_sanitized.sdf:332
                    3D
 Schrodinger Suite 2020-1.
 66 70  0  0  1  0            999 V2000
   -2.9472   -0.2870    1.1253 C   0  0  0  0  0  0
   -2.3322   -0.6012   -0.1058 C   0  0  0  0  0  0
   -3.1115   -0.7654   -1.2489 C   0  0  0  0  0  0
   -4.4941   -0.6023   -1.2371 C   0  0  0  0  0  0
   -4.3693   -0.0972    1.1776 C   0  0  0  0  0  0
   -5.1457   -0.2486   -0.0190 C   0  0  0  0  0  0
   -6.5499   -0.0216    0.0724 C   0  0  0  0  0  0
   -7.1262    0.3154    1.2913 C   0  0  0  0  0  0
   -6.3075    0.4277    2.4050 C   0  0  0  0  0  0
   -4.9704    0.2324    2.3665 N   0  0  0  0  0  0
   -0.8379   -0.7969   -0.2506 C   0  0  0  0  0  0
   -0.4155   -1.9290   -0.4957 O   0  0  0  0  0  0
   -0.0259    0.2838   -0.0842 N   0  0  0  0  0  0
    1.4405    0.1449   -0.0880 C   0  0  0  0  0  0
    2.0260   -0.5708    1.1533 C   0  0  0  0  0  0
    1.6924    0.1305    2.4843 C   0  0  0  0  0  0
    2.2691   -0.6481    3.6858 C   0  0  0  0  0  0
    3.7249   -0.8380    3.5673 N   0  0  2  0  0  0
    4.1268   -1.4488    2.2860 C   0  0  0  0  0  0
    3.5584   -0.6736    1.0784 C   0  0  0  0  0  0
   -5.2371   -0.8011   -2.4946 N   0  3  0  0  0  0
   -6.1520   -1.6185   -2.5034 O   0  0  0  0  0  0
   -4.8791   -0.1581   -3.4762 O   0  5  0  0  0  0
   -2.2491   -0.1728    2.1942 O   0  5  0  0  0  0
    4.2472   -1.5926    4.7134 C   0  0  0  0  0  0
    5.7531   -1.4682    4.9023 C   0  0  0  0  0  0
    6.4203   -0.3710    4.6477 N   0  0  0  0  0  0
    6.7176   -2.7928    5.5249 S   0  0  0  0  0  0
    8.1402   -1.7707    5.3993 C   0  0  0  0  0  0
    7.7473   -0.5016    4.9043 C   0  0  0  0  0  0
    8.7064    0.5055    4.7151 C   0  0  0  0  0  0
   10.0376    0.2195    5.0231 C   0  0  0  0  0  0
   10.4159   -1.0321    5.5089 C   0  0  0  0  0  0
    9.4793   -2.0476    5.7066 C   0  0  0  0  0  0
   -0.5080    1.6747   -0.0897 C   0  0  0  0  0  0
   -0.7416    2.2462   -1.4980 C   0  0  0  0  0  0
   -1.1688    3.5956   -1.3854 O   0  0  0  0  0  0
   -1.4414    4.2049   -2.6381 C   0  0  0  0  0  0
   -2.6332   -1.0256   -2.1840 H   0  0  0  0  0  0
   -7.1777   -0.1031   -0.8016 H   0  0  0  0  0  0
   -8.1897    0.4870    1.3697 H   0  0  0  0  0  0
   -6.7244    0.6870    3.3668 H   0  0  0  0  0  0
    1.7396   -0.3830   -0.9948 H   0  0  0  0  0  0
    1.9016    1.1308   -0.1656 H   0  0  0  0  0  0
    1.6383   -1.5903    1.1968 H   0  0  0  0  0  0
    2.0413    1.1644    2.4924 H   0  0  0  0  0  0
    0.6112    0.2195    2.5938 H   0  0  0  0  0  0
    2.0501   -0.1113    4.6101 H   0  0  0  0  0  0
    1.7844   -1.6226    3.7728 H   0  0  0  0  0  0
    5.2149   -1.4813    2.2206 H   0  0  0  0  0  0
    3.7878   -2.4862    2.2605 H   0  0  0  0  0  0
    3.8430   -1.1782    0.1543 H   0  0  0  0  0  0
    4.0264    0.3090    0.9969 H   0  0  0  0  0  0
    3.7535   -1.2620    5.6287 H   0  0  0  0  0  0
    3.9623   -2.6404    4.6009 H   0  0  0  0  0  0
    8.4274    1.4795    4.3404 H   0  0  0  0  0  0
   10.7894    0.9824    4.8829 H   0  0  0  0  0  0
   11.4553   -1.2183    5.7371 H   0  0  0  0  0  0
    9.7806   -3.0137    6.0845 H   0  0  0  0  0  0
   -1.4214    1.7959    0.4918 H   0  0  0  0  0  0
    0.1883    2.3243    0.4421 H   0  0  0  0  0  0
    0.1790    2.1838   -2.0815 H   0  0  0  0  0  0
   -1.4915    1.6501   -2.0213 H   0  0  0  0  0  0
   -1.7653    5.2336   -2.4798 H   0  0  0  0  0  0
   -2.2380    3.6825   -3.1702 H   0  0  0  0  0  0
   -0.5535    4.2281   -3.2717 H   0  0  0  0  0  0
  1  5  2  0  0  0
  1  2  1  0  0  0
  1 24  1  0  0  0
  2  3  2  0  0  0
  2 11  1  0  0  0
  3  4  1  0  0  0
  3 39  1  0  0  0
  4  6  2  0  0  0
  4 21  1  0  0  0
  5  6  1  0  0  0
  5 10  1  0  0  0
  6  7  1  0  0  0
  7  8  2  0  0  0
  7 40  1  0  0  0
  8  9  1  0  0  0
  8 41  1  0  0  0
  9 10  2  0  0  0
  9 42  1  0  0  0
 11 12  2  0  0  0
 11 13  1  0  0  0
 13 14  1  0  0  0
 13 35  1  0  0  0
 14 15  1  0  0  0
 14 43  1  0  0  0
 14 44  1  0  0  0
 15 16  1  0  0  0
 15 20  1  0  0  0
 15 45  1  0  0  0
 16 17  1  0  0  0
 16 46  1  0  0  0
 16 47  1  0  0  0
 17 18  1  0  0  0
 17 48  1  0  0  0
 17 49  1  0  0  0
 18 19  1  0  0  0
 18 25  1  0  0  0
 19 20  1  0  0  0
 19 50  1  0  0  0
 19 51  1  0  0  0
 20 52  1  0  0  0
 20 53  1  0  0  0
 21 22  2  0  0  0
 21 23  1  0  0  0
 25 26  1  0  0  0
 25 54  1  0  0  0
 25 55  1  0  0  0
 26 27  2  0  0  0
 26 28  1  0  0  0
 27 30  1  0  0  0
 28 29  1  0  0  0
 29 30  2  0  0  0
 29 34  1  0  0  0
 30 31  1  0  0  0
 31 32  2  0  0  0
 31 56  1  0  0  0
 32 33  1  0  0  0
 32 57  1  0  0  0
 33 34  2  0  0  0
 33 58  1  0  0  0
 34 59  1  0  0  0
 35 36  1  0  0  0
 35 60  1  0  0  0
 35 61  1  0  0  0
 36 37  1  0  0  0
 36 62  1  0  0  0
 36 63  1  0  0  0
 37 38  1  0  0  0
 38 64  1  0  0  0
 38 65  1  0  0  0
 38 66  1  0  0  0
M  CHG  3  21   1  23  -1  24  -1
M  END
> <chembl_id>
CHEMBL3593652

> <chembl_pref_name>
None

> <s_m_source_file>
sdf/inactives_sanitized.sdf

> <i_m_source_file_index>
332

> <i_lp_mmshare_version>
49012

> <i_m_ct_stereo_status>
1

> <i_f3d_flags>
0

> <s_epik_input>
bjFbY0hdW2NIXVtjSF1jKGMxMiljKFtOK10oPU8pW08tXSlbY0hdYyhjMltPSF0pQyg9TylOKFtDSDJdW0NIMl1PW0NIM10pW0NIMl1bQ0hdM1tDSDJdW0NIMl1OKFtDSDJdW0NIMl0zKVtDSDJdYyhzNCluYyhjNDUpW2NIXVtjSF1bY0hdW2NIXTU=

> <s_epik_cmdline>
J2VwaWtfcHl0aG9uJywgJy1waHQnLCAnMC41JywgJy1waCcsICc3LjUnLCAnLW50JywgJy1tYScsICcyMDAnLCAnLWltYWUnLCAnPGluZmlsZS5tYWU+JywgJy1vbWFlJywgJzxvdXRmaWxlLm1hZT4n

> <r_epik_Ionization_Penalty>
  0.3095

> <r_epik_Ionization_Penalty_Charging>
  0.0000

> <r_epik_Ionization_Penalty_Neutral>
  0.3095

> <r_epik_State_Penalty>
  0.3032

> <r_epik_Charging_Adjusted_Penalty>
0.303249191337833

> <i_epik_Tot_Q>
-1

> <i_epik_Tot_abs_Q>
3

> <s_lp_Force_Field>
OPLS3e

> <r_lp_Energy>
61.910547

> <b_lp_Chiralities_Consistent>
1

> <s_lp_Variant>
sdf/inactives_sanitized.sdf:332-1

$$$$
sdf/inactives_sanitized.sdf:332
                    3D
 Schrodinger Suite 2020-1.
 67 71  0  0  1  0            999 V2000
   -2.6187   -0.4312    1.1097 C   0  0  0  0  0  0
   -2.1573   -0.7498   -0.1859 C   0  0  0  0  0  0
   -3.0641   -0.8733   -1.2359 C   0  0  0  0  0  0
   -4.4303   -0.6653   -1.0669 C   0  0  0  0  0  0
   -4.0186   -0.1966    1.3236 C   0  0  0  0  0  0
   -4.9288   -0.3068    0.2205 C   0  0  0  0  0  0
   -6.3054   -0.0357    0.4715 C   0  0  0  0  0  0
   -6.7299    0.3025    1.7512 C   0  0  0  0  0  0
   -5.7883    0.3723    2.7670 C   0  0  0  0  0  0
   -4.4709    0.1352    2.5762 N   0  0  0  0  0  0
   -0.6960   -0.9916   -0.4966 C   0  0  0  0  0  0
   -0.3363   -2.1324   -0.7952 O   0  0  0  0  0  0
    0.1645    0.0577   -0.3899 N   0  0  0  0  0  0
    1.6225   -0.1374   -0.4359 C   0  0  0  0  0  0
    2.2095   -0.8179    0.8250 C   0  0  2  0  0  0
    2.1060    0.0750    2.0781 C   0  0  0  0  0  0
    2.6000   -0.6698    3.3301 C   0  0  0  0  0  0
    4.0659   -1.1144    3.0988 N   0  3  2  0  0  0
    4.2125   -2.0064    1.8375 C   0  0  0  0  0  0
    3.6761   -1.2359    0.6178 C   0  0  0  0  0  0
   -5.3156   -0.8248   -2.2348 N   0  3  0  0  0  0
   -6.2552   -1.6086   -2.1463 O   0  0  0  0  0  0
   -5.0451   -0.1866   -3.2470 O   0  5  0  0  0  0
   -1.8001   -0.3527    2.0940 O   0  5  0  0  0  0
    4.6002   -1.8232    4.3675 C   0  0  0  0  0  0
    6.0991   -2.0211    4.2632 C   0  0  0  0  0  0
    6.6287   -3.1899    4.0206 N   0  0  0  0  0  0
    7.2427   -0.7096    4.4739 S   0  0  0  0  0  0
    8.5454   -1.8536    4.1944 C   0  0  0  0  0  0
    7.9859   -3.1380    3.9714 C   0  0  0  0  0  0
    8.8255   -4.2348    3.7220 C   0  0  0  0  0  0
   10.2052   -4.0223    3.7014 C   0  0  0  0  0  0
   10.7471   -2.7559    3.9215 C   0  0  0  0  0  0
    9.9323   -1.6513    4.1720 C   0  0  0  0  0  0
   -0.2645    1.4648   -0.3517 C   0  0  0  0  0  0
   -0.5720    2.0557   -1.7365 C   0  0  0  0  0  0
   -0.9239    3.4229   -1.5873 O   0  0  0  0  0  0
   -1.2392    4.0588   -2.8163 C   0  0  0  0  0  0
   -2.7030   -1.1371   -2.2213 H   0  0  0  0  0  0
   -7.0299   -0.0842   -0.3272 H   0  0  0  0  0  0
   -7.7715    0.5072    1.9502 H   0  0  0  0  0  0
   -6.0858    0.6307    3.7725 H   0  0  0  0  0  0
    1.8527   -0.7421   -1.3149 H   0  0  0  0  0  0
    2.1311    0.8136   -0.6010 H   0  0  0  0  0  0
    1.6338   -1.7221    1.0340 H   0  0  0  0  0  0
    2.6557    1.0062    1.9318 H   0  0  0  0  0  0
    1.0712    0.3853    2.2291 H   0  0  0  0  0  0
    2.5940   -0.0220    4.2078 H   0  0  0  0  0  0
    2.0159   -1.5685    3.5375 H   0  0  0  0  0  0
    5.2707   -2.2387    1.7183 H   0  0  0  0  0  0
    3.6574   -2.9269    2.0271 H   0  0  0  0  0  0
    3.7558   -1.8626   -0.2716 H   0  0  0  0  0  0
    4.2956   -0.3640    0.4013 H   0  0  0  0  0  0
    4.3350   -1.1846    5.2115 H   0  0  0  0  0  0
    4.0313   -2.7518    4.4486 H   0  0  0  0  0  0
    8.4206   -5.2213    3.5494 H   0  0  0  0  0  0
   10.8672   -4.8546    3.5110 H   0  0  0  0  0  0
   11.8197   -2.6288    3.8976 H   0  0  0  0  0  0
   10.3606   -0.6742    4.3421 H   0  0  0  0  0  0
   -1.1284    1.6173    0.2944 H   0  0  0  0  0  0
    0.4933    2.0835    0.1305 H   0  0  0  0  0  0
    0.3011    1.9539   -2.3840 H   0  0  0  0  0  0
   -1.3852    1.4994   -2.2068 H   0  0  0  0  0  0
   -1.5039    5.0995   -2.6302 H   0  0  0  0  0  0
   -2.0889    3.5809   -3.3068 H   0  0  0  0  0  0
   -0.3884    4.0476   -3.4993 H   0  0  0  0  0  0
    4.6096   -0.2761    2.9487 H   0  0  0  0  0  0
  1  5  2  0  0  0
  1  2  1  0  0  0
  1 24  1  0  0  0
  2  3  2  0  0  0
  2 11  1  0  0  0
  3  4  1  0  0  0
  3 39  1  0  0  0
  4  6  2  0  0  0
  4 21  1  0  0  0
  5  6  1  0  0  0
  5 10  1  0  0  0
  6  7  1  0  0  0
  7  8  2  0  0  0
  7 40  1  0  0  0
  8  9  1  0  0  0
  8 41  1  0  0  0
  9 10  2  0  0  0
  9 42  1  0  0  0
 11 12  2  0  0  0
 11 13  1  0  0  0
 13 14  1  0  0  0
 13 35  1  0  0  0
 14 15  1  0  0  0
 14 43  1  0  0  0
 14 44  1  0  0  0
 15 16  1  0  0  0
 15 20  1  0  0  0
 15 45  1  0  0  0
 16 17  1  0  0  0
 16 46  1  0  0  0
 16 47  1  0  0  0
 17 18  1  0  0  0
 17 48  1  0  0  0
 17 49  1  0  0  0
 18 19  1  0  0  0
 18 25  1  0  0  0
 18 67  1  0  0  0
 19 20  1  0  0  0
 19 50  1  0  0  0
 19 51  1  0  0  0
 20 52  1  0  0  0
 20 53  1  0  0  0
 21 22  2  0  0  0
 21 23  1  0  0  0
 25 26  1  0  0  0
 25 54  1  0  0  0
 25 55  1  0  0  0
 26 27  2  0  0  0
 26 28  1  0  0  0
 27 30  1  0  0  0
 28 29  1  0  0  0
 29 30  2  0  0  0
 29 34  1  0  0  0
 30 31  1  0  0  0
 31 32  2  0  0  0
 31 56  1  0  0  0
 32 33  1  0  0  0
 32 57  1  0  0  0
 33 34  2  0  0  0
 33 58  1  0  0  0
 34 59  1  0  0  0
 35 36  1  0  0  0
 35 60  1  0  0  0
 35 61  1  0  0  0
 36 37  1  0  0  0
 36 62  1  0  0  0
 36 63  1  0  0  0
 37 38  1  0  0  0
 38 64  1  0  0  0
 38 65  1  0  0  0
 38 66  1  0  0  0
M  CHG  4  18   1  21   1  23  -1  24  -1
M  END
> <chembl_id>
CHEMBL3593652

> <chembl_pref_name>
None

> <s_m_source_file>
sdf/inactives_sanitized.sdf

> <i_m_source_file_index>
332

> <i_lp_mmshare_version>
49012

> <i_m_ct_stereo_status>
1

> <i_f3d_flags>
0

> <s_epik_input>
bjFbY0hdW2NIXVtjSF1jKGMxMiljKFtOK10oPU8pW08tXSlbY0hdYyhjMltPSF0pQyg9TylOKFtDSDJdW0NIMl1PW0NIM10pW0NIMl1bQ0hdM1tDSDJdW0NIMl1OKFtDSDJdW0NIMl0zKVtDSDJdYyhzNCluYyhjNDUpW2NIXVtjSF1bY0hdW2NIXTU=

> <s_epik_cmdline>
J2VwaWtfcHl0aG9uJywgJy1waHQnLCAnMC41JywgJy1waCcsICc3LjUnLCAnLW50JywgJy1tYScsICcyMDAnLCAnLWltYWUnLCAnPGluZmlsZS5tYWU+JywgJy1vbWFlJywgJzxvdXRmaWxlLm1hZT4n

> <r_epik_Ionization_Penalty>
  0.5331

> <r_epik_Ionization_Penalty_Charging>
  0.5331

> <r_epik_Ionization_Penalty_Neutral>
  0.0000

> <r_epik_State_Penalty>
  0.5420

> <r_epik_Charging_Adjusted_Penalty>
1.07508255220722

> <i_epik_Tot_Q>
0

> <i_epik_Tot_abs_Q>
4

> <s_lp_Force_Field>
OPLS3e

> <r_lp_Energy>
69.461972

> <b_lp_Chiralities_Consistent>
1

> <s_lp_Variant>
sdf/inactives_sanitized.sdf:332-2

$$$$
sdf/inactives_sanitized.sdf:333
                    3D
 Schrodinger Suite 2020-1.
 60 64  0  0  1  0            999 V2000
   -0.7174    1.7468   -5.3115 Cl  0  0  0  0  0  0
   -0.3300    2.3683   -3.6829 C   0  0  2  0  0  0
   -0.3568    1.2309   -2.6706 C   0  0  0  0  0  0
   -0.6388    1.9320   -1.4111 N   0  0  0  0  0  0
   -1.3228    3.2269   -1.6532 C   0  0  1  0  0  0
   -1.3918    3.3385   -3.1844 C   0  0  2  0  0  0
   -2.7189    2.9484   -3.5145 O   0  0  0  0  0  0
   -3.5737    3.4957   -2.5294 C   0  0  0  0  0  0
   -2.7870    3.3863   -1.2377 C   0  0  0  0  0  0
   -3.2421    3.4129   -0.0961 O   0  0  0  0  0  0
   -0.5057    1.3668   -0.1805 C   0  0  0  0  0  0
   -0.7669    1.9752    0.8600 O   0  0  0  0  0  0
    0.0116   -0.0926   -0.0567 C   0  0  1  0  0  0
    1.4742   -0.0219    0.0359 N   0  0  0  0  0  0
    2.3556   -0.6527   -0.7646 C   0  0  0  0  0  0
    2.0102   -1.3924   -1.6887 O   0  0  0  0  0  0
    3.8224   -0.4307   -0.4598 C   0  0  0  0  0  0
    4.7880   -1.2754   -1.0283 C   0  0  0  0  0  0
    6.1443   -1.0921   -0.7642 C   0  0  0  0  0  0
    6.5609   -0.0605    0.0732 C   0  0  0  0  0  0
    5.6188    0.7974    0.6508 C   0  0  0  0  0  0
    4.2566    0.6108    0.3804 C   0  0  0  0  0  0
    6.0394    1.8420    1.5010 N   0  0  0  0  0  0
    7.1230    1.8655    2.3477 C   0  0  0  0  0  0
    7.1085    3.1101    2.9569 C   0  0  0  0  0  0
    6.0962    3.8467    2.5404 N   0  0  0  0  0  0
    5.4688    3.0848    1.6762 C   0  0  0  0  0  0
   -0.6234   -0.8861    1.1346 C   0  0  0  0  0  0
   -0.0443   -2.3127    1.3081 C   0  0  0  0  0  0
   -0.5200   -2.9082    2.6504 C   0  0  0  0  0  0
   -2.0676   -2.9414    2.7285 C   0  0  0  0  0  0
   -2.7317   -1.5983    2.3314 C   0  0  0  0  0  0
   -2.1561   -1.0719    1.0003 C   0  0  0  0  0  0
    0.6495    2.8499   -3.6761 H   0  0  0  0  0  0
   -1.1624    0.5253   -2.8794 H   0  0  0  0  0  0
    0.5867    0.6855   -2.6585 H   0  0  0  0  0  0
   -0.7204    4.0343   -1.2350 H   0  0  0  0  0  0
   -1.1992    4.3452   -3.5618 H   0  0  0  0  0  0
   -3.7887    4.5417   -2.7516 H   0  0  0  0  0  0
   -4.5144    2.9471   -2.4806 H   0  0  0  0  0  0
   -0.2764   -0.6448   -0.9520 H   0  0  0  0  0  0
    1.8274    0.5628    0.7790 H   0  0  0  0  0  0
    4.4974   -2.0874   -1.6803 H   0  0  0  0  0  0
    6.8740   -1.7516   -1.2106 H   0  0  0  0  0  0
    7.6169    0.0684    0.2622 H   0  0  0  0  0  0
    3.5386    1.2795    0.8335 H   0  0  0  0  0  0
    7.7862    1.0180    2.4433 H   0  0  0  0  0  0
    7.8175    3.4737    3.6862 H   0  0  0  0  0  0
    4.5861    3.3598    1.1180 H   0  0  0  0  0  0
   -0.3978   -0.3188    2.0413 H   0  0  0  0  0  0
   -0.2821   -2.9456    0.4514 H   0  0  0  0  0  0
    1.0449   -2.2806    1.3226 H   0  0  0  0  0  0
   -0.1201   -3.9150    2.7760 H   0  0  0  0  0  0
   -0.1236   -2.3171    3.4775 H   0  0  0  0  0  0
   -2.4347   -3.7238    2.0625 H   0  0  0  0  0  0
   -2.3831   -3.2303    3.7317 H   0  0  0  0  0  0
   -3.8114   -1.7275    2.2478 H   0  0  0  0  0  0
   -2.5715   -0.8612    3.1201 H   0  0  0  0  0  0
   -2.4085   -1.7036    0.1469 H   0  0  0  0  0  0
   -2.6355   -0.1181    0.7792 H   0  0  0  0  0  0
  1  2  1  0  0  0
  2  3  1  0  0  0
  2  6  1  0  0  0
  2 34  1  0  0  0
  3  4  1  0  0  0
  3 35  1  0  0  0
  3 36  1  0  0  0
  4  5  1  0  0  0
  4 11  1  0  0  0
  5  6  1  0  0  0
  5  9  1  0  0  0
  5 37  1  0  0  0
  6  7  1  0  0  0
  6 38  1  0  0  0
  7  8  1  0  0  0
  8  9  1  0  0  0
  8 39  1  0  0  0
  8 40  1  0  0  0
  9 10  2  0  0  0
 11 12  2  0  0  0
 11 13  1  0  0  0
 13 14  1  0  0  0
 13 28  1  0  0  0
 13 41  1  0  0  0
 14 15  1  0  0  0
 14 42  1  0  0  0
 15 16  2  0  0  0
 15 17  1  0  0  0
 17 18  2  0  0  0
 17 22  1  0  0  0
 18 19  1  0  0  0
 18 43  1  0  0  0
 19 20  2  0  0  0
 19 44  1  0  0  0
 20 21  1  0  0  0
 20 45  1  0  0  0
 21 22  2  0  0  0
 21 23  1  0  0  0
 22 46  1  0  0  0
 23 24  1  0  0  0
 23 27  1  0  0  0
 24 25  2  0  0  0
 24 47  1  0  0  0
 25 26  1  0  0  0
 25 48  1  0  0  0
 26 27  2  0  0  0
 27 49  1  0  0  0
 28 29  1  0  0  0
 28 33  1  0  0  0
 28 50  1  0  0  0
 29 30  1  0  0  0
 29 51  1  0  0  0
 29 52  1  0  0  0
 30 31  1  0  0  0
 30 53  1  0  0  0
 30 54  1  0  0  0
 31 32  1  0  0  0
 31 55  1  0  0  0
 31 56  1  0  0  0
 32 33  1  0  0  0
 32 57  1  0  0  0
 32 58  1  0  0  0
 33 59  1  0  0  0
 33 60  1  0  0  0
M  END
> <chembl_id>
CHEMBL3648412

> <chembl_pref_name>
None

> <i_m_ct_stereo_status>
1

> <s_m_source_file>
sdf/inactives_sanitized.sdf

> <i_m_source_file_index>
333

> <i_lp_mmshare_version>
49012

> <i_f3d_flags>
0

> <s_epik_input>
Tz1DMVtDSDJdT1tDQEBIXShbQ0BASF0xMilbQ0BIXShDbClbQ0gyXU4yQyg9TylbQ0BIXShbQ0hdM1tDSDJdW0NIMl1bQ0gyXVtDSDJdW0NIMl0zKVtOSF1DKD1PKWM0W2NIXVtjSF1bY0hdYyhbY0hdNCktbjVbY0hdW2NIXW5bY0hdNQ==

> <s_epik_cmdline>
J2VwaWtfcHl0aG9uJywgJy1waHQnLCAnMC41JywgJy1waCcsICc3LjUnLCAnLW50JywgJy1tYScsICcyMDAnLCAnLWltYWUnLCAnPGluZmlsZS5tYWU+JywgJy1vbWFlJywgJzxvdXRmaWxlLm1hZT4n

> <r_lp_tautomer_probability>
1

> <r_epik_Ionization_Penalty>
  0.0070

> <r_epik_Ionization_Penalty_Charging>
  0.0070

> <r_epik_Ionization_Penalty_Neutral>
  0.0000

> <r_epik_State_Penalty>
 -0.0000

> <r_epik_Charging_Adjusted_Penalty>
0.00700018974734806

> <i_epik_Tot_Q>
0

> <i_epik_Tot_abs_Q>
0

> <s_lp_Force_Field>
OPLS3e

> <r_lp_Energy>
31.256136

> <b_lp_Chiralities_Consistent>
1

> <s_lp_Variant>
sdf/inactives_sanitized.sdf:333-1

$$$$
sdf/inactives_sanitized.sdf:334
                    3D
 Schrodinger Suite 2020-1.
 66 69  0  0  1  0            999 V2000
   -2.0502    0.8930    0.1063 C   0  0  0  0  0  0
   -2.6237   -0.3804    0.2365 C   0  0  0  0  0  0
   -1.8296   -1.5205    0.3374 C   0  0  0  0  0  0
   -0.4426   -1.4082    0.3165 C   0  0  0  0  0  0
    0.1649   -0.1513    0.2039 C   0  0  0  0  0  0
   -0.6492    0.9838    0.0906 C   0  0  0  0  0  0
    1.6932   -0.0011    0.1593 C   0  0  2  0  0  0
    2.2073   -0.3297   -1.2590 C   0  0  0  0  0  0
    2.4203   -0.8170    1.2704 C   0  0  0  0  0  0
    3.9571   -0.6217    1.3813 C   0  0  0  0  0  0
    4.5576   -1.5776    2.4287 C   0  0  0  0  0  0
    4.3598    0.8354    1.6815 C   0  0  0  0  0  0
    2.1813   -1.4883   -1.6775 O   0  0  0  0  0  0
    2.6739    0.6991   -1.9875 N   0  0  0  0  0  0
    3.1651    0.5874   -3.3581 C   0  0  0  0  0  0
    2.1074    0.2210   -4.3164 C   0  0  0  0  0  0
    1.2768   -0.0662   -5.0690 N   0  0  0  0  0  0
   -2.9068    2.1135   -0.0184 C   0  0  0  0  0  0
   -2.4901    3.2103   -0.7837 C   0  0  0  0  0  0
   -3.2918    4.3417   -0.9100 C   0  0  0  0  0  0
   -4.5343    4.4092   -0.2707 C   0  0  0  0  0  0
   -4.9519    3.3186    0.5015 C   0  0  0  0  0  0
   -4.1496    2.1877    0.6235 C   0  0  0  0  0  0
   -5.3949    5.6332   -0.4205 C   0  0  0  0  0  0
   -6.4339    5.8267    0.3804 N   0  0  0  0  0  0
   -7.1049    6.9274    0.1294 C   0  0  0  0  0  0
   -6.4503    7.8632   -1.1818 S   0  0  0  0  0  0
   -5.2231    6.6502   -1.3653 C   0  0  0  0  0  0
   -8.2061    7.3578    0.8316 N   0  0  0  0  0  0
   -9.1487    8.3914    0.3648 C   0  0  0  0  0  0
   -9.6716    9.3022    1.4957 C   0  0  0  0  0  0
  -10.3395    8.4361    2.5727 N   0  3  0  0  0  0
   -9.3391    7.3913    3.0859 C   0  0  0  0  0  0
   -8.8331    6.5514    1.8948 C   0  0  0  0  0  0
   -3.6968   -0.5017    0.2415 H   0  0  0  0  0  0
   -2.2907   -2.4932    0.4244 H   0  0  0  0  0  0
    0.1541   -2.3058    0.3801 H   0  0  0  0  0  0
   -0.1795    1.9522   -0.0013 H   0  0  0  0  0  0
    1.9003    1.0505    0.3645 H   0  0  0  0  0  0
    1.9735   -0.5649    2.2339 H   0  0  0  0  0  0
    2.2253   -1.8810    1.1281 H   0  0  0  0  0  0
    4.4050   -0.8912    0.4237 H   0  0  0  0  0  0
    4.1663   -1.3744    3.4263 H   0  0  0  0  0  0
    5.6433   -1.4846    2.4737 H   0  0  0  0  0  0
    4.3330   -2.6181    2.1904 H   0  0  0  0  0  0
    3.8990    1.1957    2.6020 H   0  0  0  0  0  0
    4.0689    1.5091    0.8760 H   0  0  0  0  0  0
    5.4405    0.9301    1.7945 H   0  0  0  0  0  0
    2.6230    1.6305   -1.6017 H   0  0  0  0  0  0
    3.5799    1.5475   -3.6651 H   0  0  0  0  0  0
    3.9707   -0.1456   -3.4229 H   0  0  0  0  0  0
   -1.5433    3.1906   -1.3029 H   0  0  0  0  0  0
   -2.9320    5.1638   -1.5105 H   0  0  0  0  0  0
   -5.9045    3.3350    1.0108 H   0  0  0  0  0  0
   -4.5039    1.3692    1.2326 H   0  0  0  0  0  0
   -4.4699    6.7425   -2.1335 H   0  0  0  0  0  0
   -8.6791    9.0321   -0.3802 H   0  0  0  0  0  0
   -9.9669    7.9098   -0.1733 H   0  0  0  0  0  0
   -8.8796    9.8671    1.9905 H   0  0  0  0  0  0
  -10.4444    9.9905    1.1523 H   0  0  0  0  0  0
  -10.6576    9.0162    3.3363 H   0  0  0  0  0  0
   -8.5424    7.9382    3.5933 H   0  0  0  0  0  0
   -9.8868    6.7925    3.8143 H   0  0  0  0  0  0
   -9.6283    5.9422    1.4624 H   0  0  0  0  0  0
   -8.1156    5.8262    2.2804 H   0  0  0  0  0  0
  -11.1480    7.9712    2.1840 H   0  0  0  0  0  0
  1 18  1  0  0  0
  1  6  2  0  0  0
  1  2  1  0  0  0
  2  3  2  0  0  0
  2 35  1  0  0  0
  3  4  1  0  0  0
  3 36  1  0  0  0
  4  5  2  0  0  0
  4 37  1  0  0  0
  5  6  1  0  0  0
  5  7  1  0  0  0
  6 38  1  0  0  0
  7  9  1  0  0  0
  7  8  1  0  0  0
  7 39  1  0  0  0
  8 13  2  0  0  0
  8 14  1  0  0  0
  9 10  1  0  0  0
  9 40  1  0  0  0
  9 41  1  0  0  0
 10 11  1  0  0  0
 10 12  1  0  0  0
 10 42  1  0  0  0
 11 43  1  0  0  0
 11 44  1  0  0  0
 11 45  1  0  0  0
 12 46  1  0  0  0
 12 47  1  0  0  0
 12 48  1  0  0  0
 14 15  1  0  0  0
 14 49  1  0  0  0
 15 16  1  0  0  0
 15 50  1  0  0  0
 15 51  1  0  0  0
 16 17  3  0  0  0
 18 19  2  0  0  0
 18 23  1  0  0  0
 19 20  1  0  0  0
 19 52  1  0  0  0
 20 21  2  0  0  0
 20 53  1  0  0  0
 21 22  1  0  0  0
 21 24  1  0  0  0
 22 23  2  0  0  0
 22 54  1  0  0  0
 23 55  1  0  0  0
 24 25  1  0  0  0
 24 28  2  0  0  0
 25 26  2  0  0  0
 26 27  1  0  0  0
 26 29  1  0  0  0
 27 28  1  0  0  0
 28 56  1  0  0  0
 29 30  1  0  0  0
 29 34  1  0  0  0
 30 31  1  0  0  0
 30 57  1  0  0  0
 30 58  1  0  0  0
 31 32  1  0  0  0
 31 59  1  0  0  0
 31 60  1  0  0  0
 32 33  1  0  0  0
 32 61  1  0  0  0
 32 66  1  0  0  0
 33 34  1  0  0  0
 33 62  1  0  0  0
 33 63  1  0  0  0
 34 64  1  0  0  0
 34 65  1  0  0  0
M  CHG  1  32   1
M  END
> <chembl_id>
CHEMBL211737

> <chembl_pref_name>
None

> <s_m_source_file>
sdf/inactives_sanitized.sdf

> <i_m_source_file_index>
334

> <i_lp_mmshare_version>
49012

> <i_m_ct_stereo_status>
1

> <i_f3d_flags>
0

> <s_epik_input>
TiNDW0NIMl1bTkhdQyg9TylbQ0BIXShbQ0gyXVtDSF0oW0NIM10pW0NIM10pYyhbY0hdMSlbY0hdW2NIXVtjSF1jMS1jMltjSF1bY0hdYyhbY0hdW2NIXTIpLWMzbmMoc1tjSF0zKU40W0NIMl1bQ0gyXVtOSF1bQ0gyXVtDSDJdNA==

> <s_epik_cmdline>
J2VwaWtfcHl0aG9uJywgJy1waHQnLCAnMC41JywgJy1waCcsICc3LjUnLCAnLW50JywgJy1tYScsICcyMDAnLCAnLWltYWUnLCAnPGluZmlsZS5tYWU+JywgJy1vbWFlJywgJzxvdXRmaWxlLm1hZT4n

> <r_lp_tautomer_probability>
1

> <r_epik_Ionization_Penalty>
  0.0952

> <r_epik_Ionization_Penalty_Charging>
  0.0951

> <r_epik_Ionization_Penalty_Neutral>
  0.0001

> <r_epik_State_Penalty>
 -0.0000

> <r_epik_Charging_Adjusted_Penalty>
0.0951418757596758

> <i_epik_Tot_Q>
1

> <i_epik_Tot_abs_Q>
1

> <s_lp_Force_Field>
OPLS3e

> <r_lp_Energy>
54.01276

> <b_lp_Chiralities_Consistent>
1

> <s_lp_Variant>
sdf/inactives_sanitized.sdf:334-1

$$$$
sdf/inactives_sanitized.sdf:335
                    3D
 Schrodinger Suite 2020-1.
 57 59  0  0  1  0            999 V2000
   -0.6711   -0.7696   -0.0972 C   0  0  0  0  0  0
    0.0398    0.3995   -0.0111 N   0  0  0  0  0  0
   -0.7742    1.4222    0.2569 N   0  0  0  0  0  0
   -2.0504    0.8955    0.3226 N   0  0  0  0  0  0
   -2.0013   -0.4166    0.1192 C   0  0  0  0  0  0
   -3.2702   -1.2973    0.1274 C   0  0  1  0  0  0
    1.4801    0.6138   -0.1113 C   0  0  1  0  0  0
    2.1243    0.5298    1.2905 C   0  0  0  0  0  0
    2.0900   -0.2922   -1.1024 C   0  0  0  0  0  0
    2.5682   -1.0032   -1.8800 N   0  0  0  0  0  0
   -2.8804   -2.7987    0.2756 C   0  0  0  0  0  0
   -4.1544   -0.9442    1.2605 N   0  0  0  0  0  0
   -3.8596   -0.8854    2.5782 C   0  0  0  0  0  0
   -2.7446   -1.1313    3.0431 O   0  0  0  0  0  0
    3.6463    0.7645    1.2865 C   0  0  0  0  0  0
    4.2590    0.7418    2.6975 C   0  0  0  0  0  0
    5.7753    0.9779    2.6956 C   0  0  0  0  0  0
   -4.9609   -0.4909    3.4309 C   0  0  0  0  0  0
   -6.1848    0.0710    3.0036 C   0  0  0  0  0  0
   -7.0468    0.3810    4.0467 C   0  0  0  0  0  0
   -6.3612    0.0143    5.5923 S   0  0  0  0  0  0
   -4.9145   -0.5561    4.8258 C   0  0  0  0  0  0
   -4.0836   -1.1193   -1.2143 C   0  0  0  0  0  0
   -3.2480   -1.3510   -2.5081 C   0  0  0  0  0  0
   -4.1212   -1.3183   -3.7790 C   0  0  0  0  0  0
   -4.9123   -0.0004   -3.8932 C   0  0  0  0  0  0
   -5.7054    0.3114   -2.6092 C   0  0  0  0  0  0
   -4.8037    0.2562   -1.3600 C   0  0  0  0  0  0
   -0.1838   -1.7130   -0.2946 H   0  0  0  0  0  0
    1.6330    1.6186   -0.5088 H   0  0  0  0  0  0
    1.9164   -0.4481    1.7287 H   0  0  0  0  0  0
    1.6523    1.2618    1.9487 H   0  0  0  0  0  0
   -2.2262   -3.1452   -0.5231 H   0  0  0  0  0  0
   -3.7599   -3.4441    0.2735 H   0  0  0  0  0  0
   -2.3431   -2.9915    1.2048 H   0  0  0  0  0  0
   -5.1248   -0.8254    1.0105 H   0  0  0  0  0  0
    4.1323    0.0063    0.6707 H   0  0  0  0  0  0
    3.8591    1.7248    0.8143 H   0  0  0  0  0  0
    3.7808    1.5029    3.3159 H   0  0  0  0  0  0
    4.0475   -0.2166    3.1738 H   0  0  0  0  0  0
    6.1710    0.9736    3.7117 H   0  0  0  0  0  0
    6.0261    1.9400    2.2472 H   0  0  0  0  0  0
    6.2966    0.2009    2.1351 H   0  0  0  0  0  0
   -6.4425    0.2463    1.9690 H   0  0  0  0  0  0
   -8.0354    0.8103    3.9781 H   0  0  0  0  0  0
   -4.1002   -0.9179    5.4370 H   0  0  0  0  0  0
   -4.8767   -1.8707   -1.2152 H   0  0  0  0  0  0
   -2.4380   -0.6234   -2.5776 H   0  0  0  0  0  0
   -2.7462   -2.3164   -2.4719 H   0  0  0  0  0  0
   -3.4967   -1.4529   -4.6630 H   0  0  0  0  0  0
   -4.8160   -2.1597   -3.7660 H   0  0  0  0  0  0
   -4.2197    0.8182   -4.0957 H   0  0  0  0  0  0
   -5.5885   -0.0442   -4.7477 H   0  0  0  0  0  0
   -6.1692    1.2952   -2.6898 H   0  0  0  0  0  0
   -6.5231   -0.4031   -2.5019 H   0  0  0  0  0  0
   -5.4251    0.4563   -0.4872 H   0  0  0  0  0  0
   -4.0810    1.0719   -1.3748 H   0  0  0  0  0  0
  1  5  2  0  0  0
  1  2  1  0  0  0
  1 29  1  0  0  0
  2  7  1  0  0  0
  2  3  1  0  0  0
  3  4  2  0  0  0
  4  5  1  0  0  0
  5  6  1  0  0  0
  6 11  1  0  0  0
  6 23  1  0  0  0
  6 12  1  0  0  0
  7  8  1  0  0  0
  7  9  1  0  0  0
  7 30  1  0  0  0
  8 15  1  0  0  0
  8 31  1  0  0  0
  8 32  1  0  0  0
  9 10  3  0  0  0
 11 33  1  0  0  0
 11 34  1  0  0  0
 11 35  1  0  0  0
 12 13  1  0  0  0
 12 36  1  0  0  0
 13 14  2  0  0  0
 13 18  1  0  0  0
 15 16  1  0  0  0
 15 37  1  0  0  0
 15 38  1  0  0  0
 16 17  1  0  0  0
 16 39  1  0  0  0
 16 40  1  0  0  0
 17 41  1  0  0  0
 17 42  1  0  0  0
 17 43  1  0  0  0
 18 19  1  0  0  0
 18 22  2  0  0  0
 19 20  2  0  0  0
 19 44  1  0  0  0
 20 21  1  0  0  0
 20 45  1  0  0  0
 21 22  1  0  0  0
 22 46  1  0  0  0
 23 24  1  0  0  0
 23 28  1  0  0  0
 23 47  1  0  0  0
 24 25  1  0  0  0
 24 48  1  0  0  0
 24 49  1  0  0  0
 25 26  1  0  0  0
 25 50  1  0  0  0
 25 51  1  0  0  0
 26 27  1  0  0  0
 26 52  1  0  0  0
 26 53  1  0  0  0
 27 28  1  0  0  0
 27 54  1  0  0  0
 27 55  1  0  0  0
 28 56  1  0  0  0
 28 57  1  0  0  0
M  END
> <chembl_id>
CHEMBL387191

> <chembl_pref_name>
None

> <i_m_ct_stereo_status>
1

> <s_m_source_file>
sdf/inactives_sanitized.sdf

> <i_m_source_file_index>
335

> <i_lp_mmshare_version>
49012

> <i_f3d_flags>
0

> <s_epik_input>
W0NIM11bQ0gyXVtDSDJdW0NIMl1bQ0BASF0oQyNOKW4xW2NIXWMobm4xKVtDQF0oW0NIM10pKFtDSF0yW0NIMl1bQ0gyXVtDSDJdW0NIMl1bQ0gyXTIpW05IXUMoPU8pYzNbY0hdW2NIXXNbY0hdMw==

> <s_epik_cmdline>
J2VwaWtfcHl0aG9uJywgJy1waHQnLCAnMC41JywgJy1waCcsICc3LjUnLCAnLW50JywgJy1tYScsICcyMDAnLCAnLWltYWUnLCAnPGluZmlsZS5tYWU+JywgJy1vbWFlJywgJzxvdXRmaWxlLm1hZT4n

> <r_lp_tautomer_probability>
1

> <r_epik_Ionization_Penalty>
  0.0000

> <r_epik_Ionization_Penalty_Charging>
  0.0000

> <r_epik_Ionization_Penalty_Neutral>
  0.0000

> <r_epik_State_Penalty>
 -0.0000

> <r_epik_Charging_Adjusted_Penalty>
0

> <i_epik_Tot_Q>
0

> <i_epik_Tot_abs_Q>
0

> <s_lp_Force_Field>
OPLS3e

> <r_lp_Energy>
21.436235

> <b_lp_Chiralities_Consistent>
1

> <s_lp_Variant>
sdf/inactives_sanitized.sdf:335-1

$$$$
sdf/inactives_sanitized.sdf:336
                    3D
 Schrodinger Suite 2020-1.
 66 69  0  0  1  0            999 V2000
   -3.0644   -0.8320   -1.7205 C   0  0  0  0  0  0
   -3.1453    0.4181   -1.4334 N   0  0  0  0  0  0
   -0.7489   -0.4771    0.2103 N   0  0  0  0  0  0
   -2.7865    0.8612   -0.0920 C   0  0  1  0  0  0
   -1.2429    0.7997    0.0790 C   0  0  0  0  0  0
   -2.5962   -1.8782   -0.7579 C   0  0  0  0  0  0
   -1.5159   -1.6891    0.1621 C   0  0  0  0  0  0
   -1.1630   -2.7751    0.9843 C   0  0  0  0  0  0
   -1.8511   -3.9821    0.9591 C   0  0  0  0  0  0
   -2.9194   -4.1458    0.0920 C   0  0  0  0  0  0
   -3.2848   -3.1055   -0.7528 C   0  0  0  0  0  0
   -3.4289   -1.2689   -3.0893 C   0  0  0  0  0  0
   -2.6506   -2.2244   -3.7600 C   0  0  0  0  0  0
   -2.9908   -2.6307   -5.0476 C   0  0  0  0  0  0
   -4.1070   -2.0817   -5.6729 C   0  0  0  0  0  0
   -4.8853   -1.1276   -5.0233 C   0  0  0  0  0  0
   -4.5470   -0.7199   -3.7356 C   0  0  0  0  0  0
   -3.3805    2.2712    0.1314 C   0  0  0  0  0  0
   -0.5591    1.8287    0.0835 O   0  0  0  0  0  0
   -3.1380    2.6988    1.4692 O   0  0  0  0  0  0
   -3.4066    3.9561    1.8623 C   0  0  0  0  0  0
   -2.9695    4.1034    3.1737 N   0  0  0  0  0  0
   -3.9297    4.8177    1.1515 O   0  0  0  0  0  0
   -3.0058    5.2580    3.9752 C   0  0  0  0  0  0
   -1.9940    5.4548    4.9403 C   0  0  0  0  0  0
   -2.0431    6.6005    5.7489 C   0  0  0  0  0  0
   -3.0745    7.5286    5.6160 C   0  0  0  0  0  0
   -4.0780    7.3226    4.6739 C   0  0  0  0  0  0
   -4.0480    6.1924    3.8609 C   0  0  0  0  0  0
   -0.8433    4.4512    5.1176 C   0  0  0  0  0  0
    0.0086    4.8074    6.0811 F   0  0  0  0  0  0
   -1.3316    3.2505    5.4324 F   0  0  0  0  0  0
   -0.1543    4.3472    3.9805 F   0  0  0  0  0  0
   -3.1111    8.9297    6.6234 Cl  0  0  0  0  0  0
    0.7247   -0.5819    0.4008 C   0  0  0  0  0  0
    1.1716   -0.2811    1.8512 C   0  0  0  0  0  0
    2.4996   -0.3072    2.0554 N   0  0  0  0  0  0
    0.3574   -0.0404    2.7465 O   0  0  0  0  0  0
    3.1532   -0.0121    3.3281 C   0  0  0  0  0  0
    3.3006    1.4753    3.5914 C   0  0  0  0  0  0
    2.7475    2.1288    4.6260 C   0  0  0  0  0  0
    2.9158    3.5268    4.8422 C   0  0  0  0  0  0
    3.0753    4.6594    5.0162 N   0  0  0  0  0  0
   -3.2575    0.2299    0.6680 H   0  0  0  0  0  0
   -0.3442   -2.6860    1.6821 H   0  0  0  0  0  0
   -1.5573   -4.7879    1.6157 H   0  0  0  0  0  0
   -3.4634   -5.0787    0.0712 H   0  0  0  0  0  0
   -4.1235   -3.2713   -1.4147 H   0  0  0  0  0  0
   -1.7764   -2.6560   -3.2929 H   0  0  0  0  0  0
   -2.3901   -3.3675   -5.5602 H   0  0  0  0  0  0
   -4.3698   -2.3971   -6.6720 H   0  0  0  0  0  0
   -5.7485   -0.7050   -5.5159 H   0  0  0  0  0  0
   -5.1639    0.0202   -3.2450 H   0  0  0  0  0  0
   -2.9452    2.9798   -0.5766 H   0  0  0  0  0  0
   -4.4572    2.2588   -0.0473 H   0  0  0  0  0  0
   -2.4742    3.3155    3.5661 H   0  0  0  0  0  0
   -1.2791    6.7816    6.4912 H   0  0  0  0  0  0
   -4.8842    8.0345    4.5735 H   0  0  0  0  0  0
   -4.8504    6.0505    3.1525 H   0  0  0  0  0  0
    1.0658   -1.5817    0.1295 H   0  0  0  0  0  0
    1.2475    0.0895   -0.2831 H   0  0  0  0  0  0
    3.1077   -0.4746    1.2670 H   0  0  0  0  0  0
    2.6614   -0.5300    4.1546 H   0  0  0  0  0  0
    4.1600   -0.4264    3.2689 H   0  0  0  0  0  0
    3.8990    2.0249    2.8785 H   0  0  0  0  0  0
    2.1433    1.5870    5.3390 H   0  0  0  0  0  0
  1 12  1  0  0  0
  1  6  1  0  0  0
  1  2  2  0  0  0
  2  4  1  0  0  0
  3  5  1  0  0  0
  3  7  1  0  0  0
  3 35  1  0  0  0
  4  5  1  0  0  0
  4 18  1  0  0  0
  4 44  1  0  0  0
  5 19  2  0  0  0
  6 11  1  0  0  0
  6  7  2  0  0  0
  7  8  1  0  0  0
  8  9  2  0  0  0
  8 45  1  0  0  0
  9 10  1  0  0  0
  9 46  1  0  0  0
 10 11  2  0  0  0
 10 47  1  0  0  0
 11 48  1  0  0  0
 12 13  2  0  0  0
 12 17  1  0  0  0
 13 14  1  0  0  0
 13 49  1  0  0  0
 14 15  2  0  0  0
 14 50  1  0  0  0
 15 16  1  0  0  0
 15 51  1  0  0  0
 16 17  2  0  0  0
 16 52  1  0  0  0
 17 53  1  0  0  0
 18 20  1  0  0  0
 18 54  1  0  0  0
 18 55  1  0  0  0
 20 21  1  0  0  0
 21 22  1  0  0  0
 21 23  2  0  0  0
 22 24  1  0  0  0
 22 56  1  0  0  0
 24 25  2  0  0  0
 24 29  1  0  0  0
 25 26  1  0  0  0
 25 30  1  0  0  0
 26 27  2  0  0  0
 26 57  1  0  0  0
 27 28  1  0  0  0
 27 34  1  0  0  0
 28 29  2  0  0  0
 28 58  1  0  0  0
 29 59  1  0  0  0
 30 31  1  0  0  0
 30 32  1  0  0  0
 30 33  1  0  0  0
 35 36  1  0  0  0
 35 60  1  0  0  0
 35 61  1  0  0  0
 36 37  1  0  0  0
 36 38  2  0  0  0
 37 39  1  0  0  0
 37 62  1  0  0  0
 39 40  1  0  0  0
 39 63  1  0  0  0
 39 64  1  0  0  0
 40 41  2  0  0  0
 40 65  1  0  0  0
 41 42  1  0  0  0
 41 66  1  0  0  0
 42 43  3  0  0  0
M  END
> <chembl_id>
CHEMBL504183

> <chembl_pref_name>
None

> <i_m_ct_stereo_status>
1

> <s_m_source_file>
sdf/inactives_sanitized.sdf

> <i_m_source_file_index>
336

> <i_lp_mmshare_version>
49012

> <i_f3d_flags>
0

> <s_epik_input>
TiNDXFtDSF09W0NIXVxbQ0gyXVtOSF1DKD1PKVtDSDJdTihjKGMxMilbY0hdW2NIXVtjSF1bY0hdMilDKD1PKVtDQEhdKE49QzFjM1tjSF1bY0hdW2NIXVtjSF1bY0hdMylbQ0gyXU9DKD1PKVtOSF1jNGMoQyhGKShGKUYpW2NIXWMoQ2wpW2NIXVtjSF00

> <s_epik_cmdline>
J2VwaWtfcHl0aG9uJywgJy1waHQnLCAnMC41JywgJy1waCcsICc3LjUnLCAnLW50JywgJy1tYScsICcyMDAnLCAnLWltYWUnLCAnPGluZmlsZS5tYWU+JywgJy1vbWFlJywgJzxvdXRmaWxlLm1hZT4n

> <r_lp_tautomer_probability>
1

> <r_epik_Ionization_Penalty>
  0.0001

> <r_epik_Ionization_Penalty_Charging>
  0.0000

> <r_epik_Ionization_Penalty_Neutral>
  0.0001

> <r_epik_State_Penalty>
 -0.0000

> <r_epik_Charging_Adjusted_Penalty>
0

> <i_epik_Tot_Q>
0

> <i_epik_Tot_abs_Q>
0

> <s_epik_Chemistry_Notes>
This compound has an ester and may undergo hydrolysis at high or low pH. This compound has an imine and may undergo hydrolysis.

> <s_lp_Force_Field>
OPLS3e

> <r_lp_Energy>
64.820655

> <b_lp_Chiralities_Consistent>
1

> <s_lp_Variant>
sdf/inactives_sanitized.sdf:336-1

$$$$
sdf/inactives_sanitized.sdf:337
                    3D
 Schrodinger Suite 2020-1.
 37 39  0  0  1  0            999 V2000
   -0.7602   -3.5921   -1.0928 C   0  0  0  0  0  0
   -2.1297   -3.6868   -0.9090 C   0  0  0  0  0  0
   -2.8166   -2.5746   -0.4385 C   0  0  0  0  0  0
   -0.0554   -2.4703   -0.8298 N   0  0  0  0  0  0
   -0.6992   -1.3531   -0.3721 C   0  0  0  0  0  0
   -2.1234   -1.3564   -0.1616 C   0  0  0  0  0  0
   -2.7667   -0.1731    0.3396 C   0  0  0  0  0  0
   -1.9727    0.9248    0.6730 C   0  0  0  0  0  0
   -0.6015    0.9215    0.4822 C   0  0  0  0  0  0
    0.0684   -0.1776   -0.0563 C   0  0  0  0  0  0
   -4.2352   -0.0573    0.5223 N   0  3  0  0  0  0
   -4.6491    0.6370    1.4467 O   0  0  0  0  0  0
   -4.9821   -0.6049   -0.2814 O   0  5  0  0  0  0
    1.4691   -0.0425   -0.2388 N   0  0  0  0  0  0
    2.2880    0.1638    0.9601 C   0  0  0  0  0  0
    2.4959   -1.1378    1.7260 C   0  0  0  0  0  0
    3.6005   -1.9456    1.4418 C   0  0  0  0  0  0
    3.7737   -3.1497    2.1194 C   0  0  0  0  0  0
    2.8385   -3.5453    3.0736 C   0  0  0  0  0  0
    1.7304   -2.7491    3.3552 C   0  0  0  0  0  0
    1.5576   -1.5441    2.6792 C   0  0  0  0  0  0
    2.1165   -0.5945   -1.4263 C   0  0  0  0  0  0
   -0.1948   -4.4389   -1.4527 H   0  0  0  0  0  0
   -2.6512   -4.6093   -1.1187 H   0  0  0  0  0  0
   -3.8765   -2.6691   -0.2682 H   0  0  0  0  0  0
   -2.4287    1.8229    1.0647 H   0  0  0  0  0  0
   -0.0545    1.8185    0.7360 H   0  0  0  0  0  0
    3.2563    0.5762    0.6716 H   0  0  0  0  0  0
    1.8302    0.8980    1.6241 H   0  0  0  0  0  0
    4.3216   -1.6431    0.6962 H   0  0  0  0  0  0
    4.6273   -3.7753    1.9038 H   0  0  0  0  0  0
    2.9728   -4.4799    3.5981 H   0  0  0  0  0  0
    1.0074   -3.0662    4.0923 H   0  0  0  0  0  0
    0.6941   -0.9306    2.8925 H   0  0  0  0  0  0
    1.4521   -0.5516   -2.2903 H   0  0  0  0  0  0
    2.4110   -1.6326   -1.2705 H   0  0  0  0  0  0
    3.0092   -0.0190   -1.6726 H   0  0  0  0  0  0
  1  2  2  0  0  0
  1  4  1  0  0  0
  1 23  1  0  0  0
  2  3  1  0  0  0
  2 24  1  0  0  0
  3  6  2  0  0  0
  3 25  1  0  0  0
  4  5  2  0  0  0
  5  6  1  0  0  0
  5 10  1  0  0  0
  6  7  1  0  0  0
  7  8  2  0  0  0
  7 11  1  0  0  0
  8  9  1  0  0  0
  8 26  1  0  0  0
  9 10  2  0  0  0
  9 27  1  0  0  0
 10 14  1  0  0  0
 11 12  2  0  0  0
 11 13  1  0  0  0
 14 15  1  0  0  0
 14 22  1  0  0  0
 15 16  1  0  0  0
 15 28  1  0  0  0
 15 29  1  0  0  0
 16 17  2  0  0  0
 16 21  1  0  0  0
 17 18  1  0  0  0
 17 30  1  0  0  0
 18 19  2  0  0  0
 18 31  1  0  0  0
 19 20  1  0  0  0
 19 32  1  0  0  0
 20 21  2  0  0  0
 20 33  1  0  0  0
 21 34  1  0  0  0
 22 35  1  0  0  0
 22 36  1  0  0  0
 22 37  1  0  0  0
M  CHG  2  11   1  13  -1
M  END
> <chembl_id>
CHEMBL2312208

> <chembl_pref_name>
None

> <s_m_source_file>
sdf/inactives_sanitized.sdf

> <i_m_source_file_index>
337

> <i_lp_mmshare_version>
49012

> <i_m_ct_stereo_status>
1

> <i_f3d_flags>
0

> <s_epik_input>
bjFbY0hdW2NIXVtjSF1jKGMxMiljKFtOK10oPU8pW08tXSlbY0hdW2NIXWMyTihbQ0gzXSlbQ0gyXWMzW2NIXVtjSF1bY0hdW2NIXVtjSF0z

> <s_epik_cmdline>
J2VwaWtfcHl0aG9uJywgJy1waHQnLCAnMC41JywgJy1waCcsICc3LjUnLCAnLW50JywgJy1tYScsICcyMDAnLCAnLWltYWUnLCAnPGluZmlsZS5tYWU+JywgJy1vbWFlJywgJzxvdXRmaWxlLm1hZT4n

> <r_lp_tautomer_probability>
1

> <r_epik_Ionization_Penalty>
  0.0000

> <r_epik_Ionization_Penalty_Charging>
  0.0000

> <r_epik_Ionization_Penalty_Neutral>
  0.0000

> <r_epik_State_Penalty>
 -0.0000

> <r_epik_Charging_Adjusted_Penalty>
0

> <i_epik_Tot_Q>
0

> <i_epik_Tot_abs_Q>
2

> <s_lp_Force_Field>
OPLS3e

> <r_lp_Energy>
61.412102

> <b_lp_Chiralities_Consistent>
1

> <s_lp_Variant>
sdf/inactives_sanitized.sdf:337-1

$$$$
sdf/inactives_sanitized.sdf:338
                    3D
 Schrodinger Suite 2020-1.
 54 55  0  0  1  0            999 V2000
   -0.4080   -0.7234    0.9180 C   0  0  0  0  0  0
   -0.7033   -2.0148    0.6788 N   0  0  0  0  0  0
   -0.9930    1.9603   -0.7756 C   0  0  0  0  0  0
    0.4199   -0.0093   -0.1777 C   0  0  1  0  0  0
    0.1764    1.4433   -0.2298 N   0  0  0  0  0  0
   -1.4256   -2.9110    1.5921 C   0  0  2  0  0  0
   -0.4629   -3.5984    2.5957 C   0  0  0  0  0  0
   -0.7195   -0.1258    1.9503 O   0  0  0  0  0  0
   -1.8986    1.3153   -1.3106 O   0  0  0  0  0  0
   -0.9862    3.3041   -0.6250 O   0  0  0  0  0  0
    1.9360   -0.2619    0.0473 C   0  0  0  0  0  0
    0.7558   -3.4203    2.6234 O   0  0  0  0  0  0
   -2.0347    4.1246   -1.1397 C   0  0  0  0  0  0
   -1.8851    4.3422   -2.6399 C   0  0  0  0  0  0
    2.8653    0.2313   -1.0887 C   0  0  0  0  0  0
   -1.1656   -4.5634    3.5612 C   0  0  0  0  0  0
   -2.3056   -3.9558    0.8633 C   0  0  0  0  0  0
   -2.8365    3.8187   -3.5185 C   0  0  0  0  0  0
   -0.7984    5.0695   -3.1320 C   0  0  0  0  0  0
    2.5625   -0.4544   -2.4384 C   0  0  0  0  0  0
    4.3498    0.0956   -0.6868 C   0  0  0  0  0  0
   -2.0423   -5.5852    2.8049 C   0  0  0  0  0  0
   -3.0289   -4.9190    1.8265 C   0  0  0  0  0  0
   -2.6996    4.0208   -4.8894 C   0  0  0  0  0  0
   -0.6624    5.2717   -4.5029 C   0  0  0  0  0  0
   -1.6137    4.7465   -5.3751 C   0  0  0  0  0  0
   -0.3907   -2.4248   -0.1894 H   0  0  0  0  0  0
    0.1455   -0.4453   -1.1413 H   0  0  0  0  0  0
    0.8135    2.0592    0.2534 H   0  0  0  0  0  0
   -2.0942   -2.2973    2.2008 H   0  0  0  0  0  0
    2.2373    0.2082    0.9860 H   0  0  0  0  0  0
    2.1174   -1.3296    0.1887 H   0  0  0  0  0  0
   -3.0135    3.7019   -0.9046 H   0  0  0  0  0  0
   -1.9938    5.0955   -0.6454 H   0  0  0  0  0  0
    2.6842    1.2985   -1.2226 H   0  0  0  0  0  0
   -0.4167   -5.0728    4.1685 H   0  0  0  0  0  0
   -1.7818   -3.9629    4.2309 H   0  0  0  0  0  0
   -3.0460   -3.4440    0.2467 H   0  0  0  0  0  0
   -1.6911   -4.5342    0.1707 H   0  0  0  0  0  0
   -3.6769    3.2535   -3.1423 H   0  0  0  0  0  0
   -0.0614    5.4754   -2.4544 H   0  0  0  0  0  0
    1.9766   -1.3652   -2.3117 H   0  0  0  0  0  0
    3.4657   -0.7295   -2.9830 H   0  0  0  0  0  0
    1.9928    0.2117   -3.0871 H   0  0  0  0  0  0
    4.8816   -0.6446   -1.2846 H   0  0  0  0  0  0
    4.4665   -0.2032    0.3554 H   0  0  0  0  0  0
    4.8713    1.0456   -0.8074 H   0  0  0  0  0  0
   -2.5952   -6.1909    3.5237 H   0  0  0  0  0  0
   -1.4019   -6.2798    2.2582 H   0  0  0  0  0  0
   -3.5667   -5.6804    1.2603 H   0  0  0  0  0  0
   -3.7830   -4.3686    2.3914 H   0  0  0  0  0  0
   -3.4317    3.6166   -5.5728 H   0  0  0  0  0  0
    0.1762    5.8332   -4.8879 H   0  0  0  0  0  0
   -1.5083    4.9034   -6.4383 H   0  0  0  0  0  0
  1  2  1  0  0  0
  1  4  1  0  0  0
  1  8  2  0  0  0
  2  6  1  0  0  0
  2 27  1  0  0  0
  3  5  1  0  0  0
  3  9  2  0  0  0
  3 10  1  0  0  0
  4  5  1  0  0  0
  4 11  1  0  0  0
  4 28  1  0  0  0
  5 29  1  0  0  0
  6  7  1  0  0  0
  6 17  1  0  0  0
  6 30  1  0  0  0
  7 12  2  0  0  0
  7 16  1  0  0  0
 10 13  1  0  0  0
 11 15  1  0  0  0
 11 31  1  0  0  0
 11 32  1  0  0  0
 13 14  1  0  0  0
 13 33  1  0  0  0
 13 34  1  0  0  0
 14 18  2  0  0  0
 14 19  1  0  0  0
 15 20  1  0  0  0
 15 21  1  0  0  0
 15 35  1  0  0  0
 16 22  1  0  0  0
 16 36  1  0  0  0
 16 37  1  0  0  0
 17 23  1  0  0  0
 17 38  1  0  0  0
 17 39  1  0  0  0
 18 24  1  0  0  0
 18 40  1  0  0  0
 19 25  2  0  0  0
 19 41  1  0  0  0
 20 42  1  0  0  0
 20 43  1  0  0  0
 20 44  1  0  0  0
 21 45  1  0  0  0
 21 46  1  0  0  0
 21 47  1  0  0  0
 22 23  1  0  0  0
 22 48  1  0  0  0
 22 49  1  0  0  0
 23 50  1  0  0  0
 23 51  1  0  0  0
 24 26  2  0  0  0
 24 52  1  0  0  0
 25 26  1  0  0  0
 25 53  1  0  0  0
 26 54  1  0  0  0
M  END
> <chembl_id>
CHEMBL349823

> <chembl_pref_name>
None

> <i_m_ct_stereo_status>
1

> <s_m_source_file>
sdf/inactives_sanitized.sdf

> <i_m_source_file_index>
338

> <i_lp_mmshare_version>
49012

> <i_f3d_flags>
0

> <s_epik_input>
W0NIMl0xW0NIMl1bQ0gyXVtDSDJdQyg9TylbQ0BIXTFbTkhdQyg9TylbQ0BIXShbQ0gyXVtDSF0oW0NIM10pW0NIM10pW05IXUMoPU8pT1tDSDJdYzJbY0hdW2NIXVtjSF1bY0hdW2NIXTI=

> <s_epik_cmdline>
J2VwaWtfcHl0aG9uJywgJy1waHQnLCAnMC41JywgJy1waCcsICc3LjUnLCAnLW50JywgJy1tYScsICcyMDAnLCAnLWltYWUnLCAnPGluZmlsZS5tYWU+JywgJy1vbWFlJywgJzxvdXRmaWxlLm1hZT4n

> <r_lp_tautomer_probability>
1

> <r_epik_Ionization_Penalty>
  0.0000

> <r_epik_Ionization_Penalty_Charging>
  0.0000

> <r_epik_Ionization_Penalty_Neutral>
  0.0000

> <r_epik_State_Penalty>
 -0.0000

> <r_epik_Charging_Adjusted_Penalty>
0

> <i_epik_Tot_Q>
0

> <i_epik_Tot_abs_Q>
0

> <s_epik_Chemistry_Notes>
This compound has an ester and may undergo hydrolysis at high or low pH.

> <s_lp_Force_Field>
OPLS3e

> <r_lp_Energy>
17.541482

> <b_lp_Chiralities_Consistent>
1

> <s_lp_Variant>
sdf/inactives_sanitized.sdf:338-1

$$$$
sdf/inactives_sanitized.sdf:339
                    3D
 Schrodinger Suite 2020-1.
 66 67  0  0  1  0            999 V2000
    0.1001    0.0671    0.0466 C   0  0  0  0  0  0
    2.1646   -1.5180    1.9312 C   0  0  0  0  0  0
    2.1384   -1.2701    0.6065 N   0  0  0  0  0  0
   -0.3961    1.3167    0.1245 N   0  0  0  0  0  0
    1.6399   -0.0400   -0.0229 C   0  0  1  0  0  0
   -2.4430    1.4825   -1.2612 C   0  0  0  0  0  0
   -1.8200    1.6946    0.1235 C   0  0  2  0  0  0
    2.6968   -2.8702    2.3523 C   0  0  0  0  0  0
   -0.5983   -0.9471   -0.0123 O   0  0  0  0  0  0
    1.8010   -0.6944    2.7740 O   0  0  0  0  0  0
    2.1268    0.0291   -1.4954 C   0  0  0  0  0  0
   -3.6511    1.2819   -1.3815 O   0  0  0  0  0  0
   -2.0318    3.1587    0.5836 C   0  0  0  0  0  0
    3.1736   -3.0510    3.6580 C   0  0  0  0  0  0
    2.7090   -3.9606    1.4678 C   0  0  0  0  0  0
   -1.5196    3.4477    2.0100 C   0  0  0  0  0  0
    3.6550   -4.2900    4.0708 C   0  0  0  0  0  0
    3.1888   -5.2005    1.8814 C   0  0  0  0  0  0
    3.6562   -5.3682    3.1854 C   0  0  0  0  0  0
    3.1157   -7.5956    4.2781 N   0  3  0  0  0  0
   -1.7788    4.8812    2.4491 C   0  0  0  0  0  0
   -1.5847    1.5778   -2.5370 C   0  0  0  0  0  0
   -0.8219    2.7691   -2.5217 O   0  0  0  0  0  0
    3.6611    0.1148   -1.6789 C   0  0  0  0  0  0
    4.1911   -6.7165    3.6341 C   0  0  0  0  0  0
   -0.8281    5.8725    2.1907 C   0  0  0  0  0  0
   -2.9697    5.2054    3.1047 C   0  0  0  0  0  0
    4.2640    1.3712   -1.0145 C   0  0  0  0  0  0
    4.0466    0.0021   -3.1697 C   0  0  0  0  0  0
   -3.2083    6.5183    3.5030 C   0  0  0  0  0  0
   -1.0672    7.1852    2.5893 C   0  0  0  0  0  0
   -2.2560    7.5018    3.2438 C   0  0  0  0  0  0
    2.4584   -1.9843   -0.0305 H   0  0  0  0  0  0
    0.2511    2.0915    0.1499 H   0  0  0  0  0  0
    2.0524    0.8072    0.5291 H   0  0  0  0  0  0
   -2.3351    1.0571    0.8460 H   0  0  0  0  0  0
    1.7489   -0.8422   -2.0349 H   0  0  0  0  0  0
    1.6799    0.8929   -1.9922 H   0  0  0  0  0  0
   -1.5455    3.8540   -0.1036 H   0  0  0  0  0  0
   -3.0925    3.4155    0.5432 H   0  0  0  0  0  0
    3.1785   -2.2327    4.3646 H   0  0  0  0  0  0
    2.3416   -3.8648    0.4559 H   0  0  0  0  0  0
   -1.9849    2.7637    2.7217 H   0  0  0  0  0  0
   -0.4499    3.2441    2.0814 H   0  0  0  0  0  0
    4.0220   -4.4083    5.0802 H   0  0  0  0  0  0
    3.1916   -6.0284    1.1872 H   0  0  0  0  0  0
    3.5183   -8.4715    4.5799 H   0  0  0  0  0  0
    2.3799   -7.7904    3.6139 H   0  0  0  0  0  0
   -0.9213    0.7156   -2.6038 H   0  0  0  0  0  0
   -2.2252    1.5696   -3.4196 H   0  0  0  0  0  0
   -0.3673    2.8521   -3.3634 H   0  0  0  0  0  0
    4.1007   -0.7529   -1.1853 H   0  0  0  0  0  0
    4.9621   -6.6247    4.4007 H   0  0  0  0  0  0
    4.5724   -7.3148    2.8049 H   0  0  0  0  0  0
    0.0928    5.6281    1.6812 H   0  0  0  0  0  0
   -3.7095    4.4434    3.3040 H   0  0  0  0  0  0
    3.5056    2.1258   -0.8039 H   0  0  0  0  0  0
    5.0267    1.8485   -1.6300 H   0  0  0  0  0  0
    4.7387    1.1132   -0.0672 H   0  0  0  0  0  0
    4.4798    0.9218   -3.5632 H   0  0  0  0  0  0
    3.1873   -0.2321   -3.7989 H   0  0  0  0  0  0
    4.7789   -0.7917   -3.3206 H   0  0  0  0  0  0
   -4.1273    6.7730    4.0098 H   0  0  0  0  0  0
   -0.3353    7.9543    2.3918 H   0  0  0  0  0  0
   -2.4413    8.5200    3.5527 H   0  0  0  0  0  0
    2.7202   -7.1283    5.0818 H   0  0  0  0  0  0
  1  4  1  0  0  0
  1  5  1  0  0  0
  1  9  2  0  0  0
  2  3  1  0  0  0
  2  8  1  0  0  0
  2 10  2  0  0  0
  3  5  1  0  0  0
  3 33  1  0  0  0
  4  7  1  0  0  0
  4 34  1  0  0  0
  5 11  1  0  0  0
  5 35  1  0  0  0
  6  7  1  0  0  0
  6 12  2  0  0  0
  6 22  1  0  0  0
  7 13  1  0  0  0
  7 36  1  0  0  0
  8 14  2  0  0  0
  8 15  1  0  0  0
 11 24  1  0  0  0
 11 37  1  0  0  0
 11 38  1  0  0  0
 13 16  1  0  0  0
 13 39  1  0  0  0
 13 40  1  0  0  0
 14 17  1  0  0  0
 14 41  1  0  0  0
 15 18  2  0  0  0
 15 42  1  0  0  0
 16 21  1  0  0  0
 16 43  1  0  0  0
 16 44  1  0  0  0
 17 19  2  0  0  0
 17 45  1  0  0  0
 18 19  1  0  0  0
 18 46  1  0  0  0
 19 25  1  0  0  0
 20 25  1  0  0  0
 20 47  1  0  0  0
 20 48  1  0  0  0
 20 66  1  0  0  0
 21 26  2  0  0  0
 21 27  1  0  0  0
 22 23  1  0  0  0
 22 49  1  0  0  0
 22 50  1  0  0  0
 23 51  1  0  0  0
 24 28  1  0  0  0
 24 29  1  0  0  0
 24 52  1  0  0  0
 25 53  1  0  0  0
 25 54  1  0  0  0
 26 31  1  0  0  0
 26 55  1  0  0  0
 27 30  2  0  0  0
 27 56  1  0  0  0
 28 57  1  0  0  0
 28 58  1  0  0  0
 28 59  1  0  0  0
 29 60  1  0  0  0
 29 61  1  0  0  0
 29 62  1  0  0  0
 30 32  1  0  0  0
 30 63  1  0  0  0
 31 32  2  0  0  0
 31 64  1  0  0  0
 32 65  1  0  0  0
M  CHG  1  20   1
M  END
> <chembl_id>
CHEMBL100482

> <chembl_pref_name>
None

> <i_m_ct_stereo_status>
1

> <s_m_source_file>
sdf/inactives_sanitized.sdf

> <i_m_source_file_index>
339

> <i_lp_mmshare_version>
49012

> <i_f3d_flags>
0

> <s_epik_input>
W2NIXTFbY0hdYyhbQ0gyXVtOSDJdKVtjSF1bY0hdYzFDKD1PKVtOSF1bQ0BASF0oW0NIMl1bQ0hdKFtDSDNdKVtDSDNdKUMoPU8pW05IXVtDQEhdKEMoPU8pW0NIMl1bT0hdKVtDSDJdW0NIMl1jMltjSF1bY0hdW2NIXVtjSF1bY0hdMg==

> <s_epik_cmdline>
J2VwaWtfcHl0aG9uJywgJy1waHQnLCAnMC41JywgJy1waCcsICc3LjUnLCAnLW50JywgJy1tYScsICcyMDAnLCAnLWltYWUnLCAnPGluZmlsZS5tYWU+JywgJy1vbWFlJywgJzxvdXRmaWxlLm1hZT4n

> <r_lp_tautomer_probability>
0.99990000499975

> <r_epik_Ionization_Penalty>
  0.0980

> <r_epik_Ionization_Penalty_Charging>
  0.0980

> <r_epik_Ionization_Penalty_Neutral>
  0.0001

> <r_epik_State_Penalty>
  0.0881

> <r_epik_Charging_Adjusted_Penalty>
0.186008459928398

> <i_epik_Tot_Q>
1

> <i_epik_Tot_abs_Q>
1

> <s_lp_Force_Field>
OPLS3e

> <r_lp_Energy>
39.83999

> <b_lp_Chiralities_Consistent>
1

> <s_lp_Variant>
sdf/inactives_sanitized.sdf:339-1

$$$$
sdf/inactives_sanitized.sdf:340
                    3D
 Schrodinger Suite 2020-1.
 55 57  0  0  1  0            999 V2000
   -0.7769    1.6680    1.9644 S   0  0  0  0  0  0
   -1.2949    0.7257    0.5331 N   0  0  1  0  0  0
   -0.3282   -0.2672   -0.0629 C   0  0  2  0  0  0
    1.0753    0.3061   -0.3473 C   0  0  0  0  0  0
   -0.0829    3.1879    1.3211 C   0  0  0  0  0  0
    1.1439    1.3589   -1.1846 N   0  0  0  0  0  0
   -1.9730    2.0741    2.7128 O   0  0  0  0  0  0
    0.3011    0.9358    2.6406 O   0  0  0  0  0  0
    2.0762   -0.2870    0.0557 O   0  0  0  0  0  0
    2.3804    1.9895   -1.6703 C   0  0  2  0  0  0
    1.2689    3.4869    1.5074 C   0  0  0  0  0  0
   -0.9164    4.0797    0.6446 C   0  0  0  0  0  0
    0.8538    3.7280   -2.4744 O   0  0  0  0  0  0
   -2.7393    0.3579    0.5367 C   0  0  0  0  0  0
    2.0032    3.3043   -2.3356 C   0  0  0  0  0  0
    3.1455    1.0745   -2.6691 C   0  0  0  0  0  0
   -0.8361   -1.0156   -1.3266 C   0  0  0  0  0  0
   -0.3979    5.2749    0.1547 C   0  0  0  0  0  0
    1.7861    4.6824    1.0162 C   0  0  0  0  0  0
    0.9532    5.5759    0.3389 C   0  0  0  0  0  0
    4.6331    1.3583   -2.7865 C   0  0  0  0  0  0
    1.5129    6.8741   -0.2127 C   0  0  0  0  0  0
    5.1162    2.2701   -3.7492 C   0  0  0  0  0  0
    5.5263    0.8397   -1.8250 C   0  0  0  0  0  0
   -3.1990   -0.3058   -0.7722 C   0  0  0  0  0  0
   -2.2918   -1.4785   -1.1644 C   0  0  0  0  0  0
    6.8734    1.1724   -1.8777 C   0  0  0  0  0  0
    6.4668    2.5917   -3.7840 C   0  0  0  0  0  0
    7.3422    2.0397   -2.8567 C   0  0  0  0  0  0
   -0.2140   -1.0100    0.7297 H   0  0  0  0  0  0
    0.2862    1.7803   -1.5120 H   0  0  0  0  0  0
    3.0015    2.2203   -0.8021 H   0  0  0  0  0  0
    1.9211    2.8018    2.0287 H   0  0  0  0  0  0
   -1.9619    3.8486    0.5003 H   0  0  0  0  0  0
   -2.8880   -0.4016    1.3057 H   0  0  0  0  0  0
   -3.3440    1.2500    0.7017 H   0  0  0  0  0  0
    2.8557    3.8766   -2.7017 H   0  0  0  0  0  0
    3.0541    0.0302   -2.3688 H   0  0  0  0  0  0
    2.6821    1.0929   -3.6579 H   0  0  0  0  0  0
   -0.8298   -0.3707   -2.2080 H   0  0  0  0  0  0
   -0.2725   -1.9372   -1.4835 H   0  0  0  0  0  0
   -1.0442    5.9624   -0.3717 H   0  0  0  0  0  0
    2.8329    4.9078    1.1595 H   0  0  0  0  0  0
    2.5795    6.9828   -0.0121 H   0  0  0  0  0  0
    0.9909    7.7255    0.2252 H   0  0  0  0  0  0
    1.3610    6.9179   -1.2918 H   0  0  0  0  0  0
    4.4400    2.7167   -4.4636 H   0  0  0  0  0  0
    5.1656    0.1797   -1.0491 H   0  0  0  0  0  0
   -4.2270   -0.6535   -0.6638 H   0  0  0  0  0  0
   -3.2166    0.4359   -1.5722 H   0  0  0  0  0  0
   -2.3512   -2.2593   -0.4041 H   0  0  0  0  0  0
   -2.6456   -1.9288   -2.0929 H   0  0  0  0  0  0
    7.5576    0.7611   -1.1500 H   0  0  0  0  0  0
    6.8372    3.2786   -4.5307 H   0  0  0  0  0  0
    8.3911    2.2956   -2.8895 H   0  0  0  0  0  0
  1  2  1  0  0  0
  1  5  1  0  0  0
  1  7  2  0  0  0
  1  8  2  0  0  0
  2  3  1  0  0  0
  2 14  1  0  0  0
  3  4  1  0  0  0
  3 17  1  0  0  0
  3 30  1  0  0  0
  4  6  1  0  0  0
  4  9  2  0  0  0
  5 11  2  0  0  0
  5 12  1  0  0  0
  6 10  1  0  0  0
  6 31  1  0  0  0
 10 15  1  0  0  0
 10 16  1  0  0  0
 10 32  1  0  0  0
 11 19  1  0  0  0
 11 33  1  0  0  0
 12 18  2  0  0  0
 12 34  1  0  0  0
 13 15  2  0  0  0
 14 25  1  0  0  0
 14 35  1  0  0  0
 14 36  1  0  0  0
 15 37  1  0  0  0
 16 21  1  0  0  0
 16 38  1  0  0  0
 16 39  1  0  0  0
 17 26  1  0  0  0
 17 40  1  0  0  0
 17 41  1  0  0  0
 18 20  1  0  0  0
 18 42  1  0  0  0
 19 20  2  0  0  0
 19 43  1  0  0  0
 20 22  1  0  0  0
 21 23  2  0  0  0
 21 24  1  0  0  0
 22 44  1  0  0  0
 22 45  1  0  0  0
 22 46  1  0  0  0
 23 28  1  0  0  0
 23 47  1  0  0  0
 24 27  2  0  0  0
 24 48  1  0  0  0
 25 26  1  0  0  0
 25 49  1  0  0  0
 25 50  1  0  0  0
 26 51  1  0  0  0
 26 52  1  0  0  0
 27 29  1  0  0  0
 27 53  1  0  0  0
 28 29  2  0  0  0
 28 54  1  0  0  0
 29 55  1  0  0  0
M  END
> <chembl_id>
CHEMBL163790

> <chembl_pref_name>
None

> <s_m_source_file>
sdf/inactives_sanitized.sdf

> <i_m_source_file_index>
340

> <i_lp_mmshare_version>
49012

> <i_m_ct_stereo_status>
1

> <i_f3d_flags>
0

> <s_epik_input>
W2NIXTFbY0hdYyhbQ0gzXSlbY0hdW2NIXWMxUyg9TykoPU8pTjJbQ0BASF0oW0NIMl1bQ0gyXVtDSDJdW0NIMl0yKUMoPU8pW05IXVtDQEhdKFtDSF09TylbQ0gyXWMzW2NIXVtjSF1bY0hdW2NIXVtjSF0z

> <s_epik_cmdline>
J2VwaWtfcHl0aG9uJywgJy1waHQnLCAnMC41JywgJy1waCcsICc3LjUnLCAnLW50JywgJy1tYScsICcyMDAnLCAnLWltYWUnLCAnPGluZmlsZS5tYWU+JywgJy1vbWFlJywgJzxvdXRmaWxlLm1hZT4n

> <r_lp_tautomer_probability>
1

> <r_epik_Ionization_Penalty>
  0.0027

> <r_epik_Ionization_Penalty_Charging>
  0.0000

> <r_epik_Ionization_Penalty_Neutral>
  0.0027

> <r_epik_State_Penalty>
 -0.0000

> <r_epik_Charging_Adjusted_Penalty>
0

> <i_epik_Tot_Q>
0

> <i_epik_Tot_abs_Q>
0

> <s_lp_Force_Field>
OPLS3e

> <r_lp_Energy>
50.654827

> <b_lp_Chiralities_Consistent>
1

> <s_lp_Variant>
sdf/inactives_sanitized.sdf:340-1

$$$$
sdf/inactives_sanitized.sdf:341
                    3D
 Schrodinger Suite 2020-1.
 50 51  0  0  1  0            999 V2000
   -0.9606   -0.8199   -0.1784 C   0  0  0  0  0  0
   -2.1395   -0.4704    0.4243 N   0  0  0  0  0  0
   -1.9301    0.4691    1.3500 N   0  0  0  0  0  0
   -0.5741    0.7354    1.3309 N   0  0  0  0  0  0
    0.0194   -0.0211    0.4119 C   0  0  0  0  0  0
    1.5401    0.0632    0.1642 C   0  0  2  0  0  0
   -3.4759   -1.0014    0.1727 C   0  0  1  0  0  0
   -4.0165   -1.7494    1.4143 C   0  0  0  0  0  0
   -4.3749    0.0629   -0.3108 C   0  0  0  0  0  0
   -5.0800    0.8978   -0.6908 N   0  0  0  0  0  0
    1.8976    1.5541   -0.1238 C   0  0  0  0  0  0
    1.9605   -0.8526   -1.0562 C   0  0  0  0  0  0
    3.4752   -1.1418   -1.1823 C   0  0  0  0  0  0
    1.4334   -0.3619   -2.4284 C   0  0  0  0  0  0
    2.1375   -0.4208    1.4294 N   0  0  0  0  0  0
    3.3470   -0.1747    1.9799 C   0  0  0  0  0  0
    4.2084    0.5458    1.4737 O   0  0  0  0  0  0
   -5.4126   -2.3641    1.2004 C   0  0  0  0  0  0
   -5.9186   -3.1487    2.4235 C   0  0  0  0  0  0
   -7.3123   -3.7551    2.2088 C   0  0  0  0  0  0
    3.5739   -0.8333    3.2471 C   0  0  0  0  0  0
    4.5978   -0.4678    4.1428 C   0  0  0  0  0  0
    4.6606   -1.2714    5.2733 C   0  0  0  0  0  0
    3.4786   -2.5350    5.2439 S   0  0  0  0  0  0
    2.9041   -1.9745    3.7072 C   0  0  0  0  0  0
   -0.9291   -1.5753   -0.9496 H   0  0  0  0  0  0
   -3.3894   -1.7111   -0.6511 H   0  0  0  0  0  0
   -3.3150   -2.5377    1.6931 H   0  0  0  0  0  0
   -4.0598   -1.0676    2.2657 H   0  0  0  0  0  0
    1.2659    1.9757   -0.9065 H   0  0  0  0  0  0
    2.9283    1.6780   -0.4550 H   0  0  0  0  0  0
    1.7640    2.1802    0.7597 H   0  0  0  0  0  0
    1.5085   -1.8317   -0.8870 H   0  0  0  0  0  0
    4.0562   -0.2252   -1.2847 H   0  0  0  0  0  0
    3.6883   -1.7591   -2.0559 H   0  0  0  0  0  0
    3.8593   -1.6903   -0.3229 H   0  0  0  0  0  0
    1.9426    0.5465   -2.7519 H   0  0  0  0  0  0
    0.3661   -0.1471   -2.4178 H   0  0  0  0  0  0
    1.5970   -1.1135   -3.2017 H   0  0  0  0  0  0
    1.5329   -1.0353    1.9540 H   0  0  0  0  0  0
   -6.1263   -1.5743    0.9621 H   0  0  0  0  0  0
   -5.3850   -3.0236    0.3318 H   0  0  0  0  0  0
   -5.2155   -3.9473    2.6642 H   0  0  0  0  0  0
   -5.9458   -2.4923    3.2946 H   0  0  0  0  0  0
   -7.6388   -4.3031    3.0932 H   0  0  0  0  0  0
   -7.3168   -4.4505    1.3688 H   0  0  0  0  0  0
   -8.0540   -2.9814    2.0073 H   0  0  0  0  0  0
    5.2689    0.3636    3.9794 H   0  0  0  0  0  0
    5.3460   -1.1861    6.1036 H   0  0  0  0  0  0
    2.1007   -2.5081    3.2204 H   0  0  0  0  0  0
  1  5  2  0  0  0
  1  2  1  0  0  0
  1 26  1  0  0  0
  2  7  1  0  0  0
  2  3  1  0  0  0
  3  4  2  0  0  0
  4  5  1  0  0  0
  5  6  1  0  0  0
  6 15  1  0  0  0
  6 11  1  0  0  0
  6 12  1  0  0  0
  7  8  1  0  0  0
  7  9  1  0  0  0
  7 27  1  0  0  0
  8 18  1  0  0  0
  8 28  1  0  0  0
  8 29  1  0  0  0
  9 10  3  0  0  0
 11 30  1  0  0  0
 11 31  1  0  0  0
 11 32  1  0  0  0
 12 13  1  0  0  0
 12 14  1  0  0  0
 12 33  1  0  0  0
 13 34  1  0  0  0
 13 35  1  0  0  0
 13 36  1  0  0  0
 14 37  1  0  0  0
 14 38  1  0  0  0
 14 39  1  0  0  0
 15 16  1  0  0  0
 15 40  1  0  0  0
 16 17  2  0  0  0
 16 21  1  0  0  0
 18 19  1  0  0  0
 18 41  1  0  0  0
 18 42  1  0  0  0
 19 20  1  0  0  0
 19 43  1  0  0  0
 19 44  1  0  0  0
 20 45  1  0  0  0
 20 46  1  0  0  0
 20 47  1  0  0  0
 21 22  1  0  0  0
 21 25  2  0  0  0
 22 23  2  0  0  0
 22 48  1  0  0  0
 23 24  1  0  0  0
 23 49  1  0  0  0
 24 25  1  0  0  0
 25 50  1  0  0  0
M  END
> <chembl_id>
CHEMBL385571

> <chembl_pref_name>
None

> <i_m_ct_stereo_status>
1

> <s_m_source_file>
sdf/inactives_sanitized.sdf

> <i_m_source_file_index>
341

> <i_lp_mmshare_version>
49012

> <i_f3d_flags>
0

> <s_epik_input>
W0NIM11bQ0gyXVtDSDJdW0NIMl1bQ0BASF0oQyNOKW4xW2NIXWMobm4xKVtDQF0oW0NIM10pKFtDSF0oW0NIM10pW0NIM10pW05IXUMoPU8pYzJbY0hdW2NIXXNbY0hdMg==

> <s_epik_cmdline>
J2VwaWtfcHl0aG9uJywgJy1waHQnLCAnMC41JywgJy1waCcsICc3LjUnLCAnLW50JywgJy1tYScsICcyMDAnLCAnLWltYWUnLCAnPGluZmlsZS5tYWU+JywgJy1vbWFlJywgJzxvdXRmaWxlLm1hZT4n

> <r_lp_tautomer_probability>
1

> <r_epik_Ionization_Penalty>
  0.0000

> <r_epik_Ionization_Penalty_Charging>
  0.0000

> <r_epik_Ionization_Penalty_Neutral>
  0.0000

> <r_epik_State_Penalty>
 -0.0000

> <r_epik_Charging_Adjusted_Penalty>
0

> <i_epik_Tot_Q>
0

> <i_epik_Tot_abs_Q>
0

> <s_lp_Force_Field>
OPLS3e

> <r_lp_Energy>
18.564163

> <b_lp_Chiralities_Consistent>
1

> <s_lp_Variant>
sdf/inactives_sanitized.sdf:341-1

$$$$
sdf/inactives_sanitized.sdf:342
                    3D
 Schrodinger Suite 2020-1.
 78 81  0  0  1  0            999 V2000
    3.7518   -0.0543   -0.6978 C   0  0  2  0  0  0
    4.7324    0.2359   -1.8364 C   0  0  1  0  0  0
    4.4516   -1.1930   -1.4438 C   0  0  0  0  0  0
    2.2146    0.0209   -0.9427 C   0  0  0  0  0  0
   -0.2962    1.9571   -0.9699 C   0  0  0  0  0  0
    0.0062    0.8047   -0.0017 C   0  0  1  0  0  0
    4.2198    0.2615    0.6587 N   0  0  0  0  0  0
    1.4590    0.5628    0.0353 N   0  0  0  0  0  0
   -1.7447    1.9417   -1.6107 C   0  0  0  0  0  0
    4.5085    1.5538    1.0755 C   0  0  0  0  0  0
    0.5041    2.8562   -1.2517 O   0  0  0  0  0  0
    1.7077   -0.3990   -1.9842 O   0  0  0  0  0  0
   -0.4699    1.1280    1.4414 C   0  0  0  0  0  0
    4.4679    2.5696    0.3770 O   0  0  0  0  0  0
   -2.4472    0.9295   -1.5975 O   0  0  0  0  0  0
    4.8254    1.5283    2.3834 O   0  0  0  0  0  0
    4.3391    0.7046   -3.2595 C   0  0  0  0  0  0
   -2.0889    3.1340   -2.1315 N   0  0  0  0  0  0
    5.1385    2.7275    3.0811 C   0  0  0  0  0  0
   -1.9621    0.9955    1.6988 C   0  0  0  0  0  0
   -3.3735    3.4139   -2.7669 C   0  0  0  0  0  0
    5.2294    2.4369    4.5676 C   0  0  0  0  0  0
   -4.8237    3.2129   -4.8550 C   0  0  0  0  0  0
   -3.4924    2.8689   -4.2033 C   0  0  0  0  0  0
    5.4688    0.4118   -4.2622 C   0  0  0  0  0  0
    3.9750    2.1996   -3.2602 C   0  0  0  0  0  0
   -2.8016    2.1292    1.6474 C   0  0  0  0  0  0
   -2.5443   -0.2825    1.8352 C   0  0  0  0  0  0
    6.4788    2.3027    5.1774 C   0  0  0  0  0  0
    4.0601    2.3045    5.3207 C   0  0  0  0  0  0
   -5.8758    2.2934   -4.8194 C   0  0  0  0  0  0
   -4.9940    4.4498   -5.4830 C   0  0  0  0  0  0
   -3.9206   -0.4078    1.9706 C   0  0  0  0  0  0
   -4.1758    1.9824    1.7823 C   0  0  0  0  0  0
   -6.2142    4.7658   -6.0752 C   0  0  0  0  0  0
    6.5585    2.0350    6.5419 C   0  0  0  0  0  0
    4.1407    2.0373    6.6850 C   0  0  0  0  0  0
   -7.0951    2.6095   -5.4128 C   0  0  0  0  0  0
    5.3895    1.9040    7.2893 C   0  0  0  0  0  0
   -4.7317    0.7199    1.9482 C   0  0  0  0  0  0
   -7.2587    3.8442   -6.0379 C   0  0  0  0  0  0
    5.7010    0.6477   -1.5470 H   0  0  0  0  0  0
    5.2457   -1.7513   -0.9475 H   0  0  0  0  0  0
    3.9476   -1.7904   -2.2052 H   0  0  0  0  0  0
   -0.4599   -0.1288   -0.3257 H   0  0  0  0  0  0
    4.2448   -0.4813    1.3420 H   0  0  0  0  0  0
    1.9255    0.8967    0.8661 H   0  0  0  0  0  0
    0.0264    0.4520    2.1402 H   0  0  0  0  0  0
   -0.1314    2.1197    1.7493 H   0  0  0  0  0  0
    3.4693    0.1528   -3.6125 H   0  0  0  0  0  0
   -1.4289    3.8969   -2.0813 H   0  0  0  0  0  0
    6.0825    3.1393    2.7202 H   0  0  0  0  0  0
    4.3745    3.4891    2.9137 H   0  0  0  0  0  0
   -4.2037    3.0504   -2.1575 H   0  0  0  0  0  0
   -3.5339    4.4928   -2.7778 H   0  0  0  0  0  0
   -3.3601    1.7855   -4.2075 H   0  0  0  0  0  0
   -2.6806    3.2563   -4.8213 H   0  0  0  0  0  0
    6.3829    0.9489   -4.0052 H   0  0  0  0  0  0
    5.1858    0.7057   -5.2736 H   0  0  0  0  0  0
    5.7061   -0.6523   -4.2875 H   0  0  0  0  0  0
    4.8161    2.8160   -2.9402 H   0  0  0  0  0  0
    3.1425    2.4041   -2.5859 H   0  0  0  0  0  0
    3.6762    2.5342   -4.2540 H   0  0  0  0  0  0
   -2.3801    3.1121    1.4955 H   0  0  0  0  0  0
   -1.9227   -1.1659    1.8312 H   0  0  0  0  0  0
    7.3852    2.4037    4.5982 H   0  0  0  0  0  0
    3.0924    2.4065    4.8506 H   0  0  0  0  0  0
   -5.7505    1.3367   -4.3329 H   0  0  0  0  0  0
   -4.1850    5.1655   -5.5105 H   0  0  0  0  0  0
   -4.3630   -1.3866    2.0833 H   0  0  0  0  0  0
   -4.8153    2.8520    1.7485 H   0  0  0  0  0  0
   -6.3504    5.7208   -6.5609 H   0  0  0  0  0  0
    7.5219    1.9294    7.0187 H   0  0  0  0  0  0
    3.2398    1.9340    7.2719 H   0  0  0  0  0  0
   -7.9102    1.9011   -5.3884 H   0  0  0  0  0  0
    5.4520    1.6967    8.3475 H   0  0  0  0  0  0
   -5.8018    0.6130    2.0482 H   0  0  0  0  0  0
   -8.2049    4.0890   -6.4976 H   0  0  0  0  0  0
  1  2  1  0  0  0
  1  3  1  0  0  0
  1  4  1  0  0  0
  1  7  1  0  0  0
  2 17  1  0  0  0
  2  3  1  0  0  0
  2 42  1  0  0  0
  3 43  1  0  0  0
  3 44  1  0  0  0
  4  8  1  0  0  0
  4 12  2  0  0  0
  5  6  1  0  0  0
  5  9  1  0  0  0
  5 11  2  0  0  0
  6  8  1  0  0  0
  6 13  1  0  0  0
  6 45  1  0  0  0
  7 10  1  0  0  0
  7 46  1  0  0  0
  8 47  1  0  0  0
  9 15  2  0  0  0
  9 18  1  0  0  0
 10 14  2  0  0  0
 10 16  1  0  0  0
 13 20  1  0  0  0
 13 48  1  0  0  0
 13 49  1  0  0  0
 16 19  1  0  0  0
 17 25  1  0  0  0
 17 26  1  0  0  0
 17 50  1  0  0  0
 18 21  1  0  0  0
 18 51  1  0  0  0
 19 22  1  0  0  0
 19 52  1  0  0  0
 19 53  1  0  0  0
 20 27  2  0  0  0
 20 28  1  0  0  0
 21 24  1  0  0  0
 21 54  1  0  0  0
 21 55  1  0  0  0
 22 29  2  0  0  0
 22 30  1  0  0  0
 23 24  1  0  0  0
 23 31  2  0  0  0
 23 32  1  0  0  0
 24 56  1  0  0  0
 24 57  1  0  0  0
 25 58  1  0  0  0
 25 59  1  0  0  0
 25 60  1  0  0  0
 26 61  1  0  0  0
 26 62  1  0  0  0
 26 63  1  0  0  0
 27 34  1  0  0  0
 27 64  1  0  0  0
 28 33  2  0  0  0
 28 65  1  0  0  0
 29 36  1  0  0  0
 29 66  1  0  0  0
 30 37  2  0  0  0
 30 67  1  0  0  0
 31 38  1  0  0  0
 31 68  1  0  0  0
 32 35  2  0  0  0
 32 69  1  0  0  0
 33 40  1  0  0  0
 33 70  1  0  0  0
 34 40  2  0  0  0
 34 71  1  0  0  0
 35 41  1  0  0  0
 35 72  1  0  0  0
 36 39  2  0  0  0
 36 73  1  0  0  0
 37 39  1  0  0  0
 37 74  1  0  0  0
 38 41  2  0  0  0
 38 75  1  0  0  0
 39 76  1  0  0  0
 40 77  1  0  0  0
 41 78  1  0  0  0
M  END
> <chembl_id>
CHEMBL82887

> <chembl_pref_name>
None

> <i_m_ct_stereo_status>
1

> <s_m_source_file>
sdf/inactives_sanitized.sdf

> <i_m_source_file_index>
342

> <i_lp_mmshare_version>
49012

> <i_f3d_flags>
0

> <s_epik_input>
W2NIXTFbY0hdW2NIXVtjSF1bY0hdYzFbQ0gyXU9DKD1PKVtOSF1bQ0BdMihbQ0BASF0oW0NIMl0yKVtDSF0oW0NIM10pW0NIM10pQyg9TylbTkhdW0NAQEhdKFtDSDJdYzNbY0hdW2NIXVtjSF1bY0hdW2NIXTMpQyg9TylDKD1PKVtOSF1bQ0gyXVtDSDJdYzRbY0hdW2NIXVtjSF1bY0hdW2NIXTQ=

> <s_epik_cmdline>
J2VwaWtfcHl0aG9uJywgJy1waHQnLCAnMC41JywgJy1waCcsICc3LjUnLCAnLW50JywgJy1tYScsICcyMDAnLCAnLWltYWUnLCAnPGluZmlsZS5tYWU+JywgJy1vbWFlJywgJzxvdXRmaWxlLm1hZT4n

> <r_lp_tautomer_probability>
1

> <r_epik_Ionization_Penalty>
  0.0000

> <r_epik_Ionization_Penalty_Charging>
  0.0000

> <r_epik_Ionization_Penalty_Neutral>
  0.0000

> <r_epik_State_Penalty>
 -0.0000

> <r_epik_Charging_Adjusted_Penalty>
0

> <i_epik_Tot_Q>
0

> <i_epik_Tot_abs_Q>
0

> <s_epik_Chemistry_Notes>
This compound has an ester and may undergo hydrolysis at high or low pH.

> <s_lp_Force_Field>
OPLS3e

> <r_lp_Energy>
50.11111

> <b_lp_Chiralities_Consistent>
1

> <s_lp_Variant>
sdf/inactives_sanitized.sdf:342-1

$$$$
sdf/inactives_sanitized.sdf:343
                    3D
 Schrodinger Suite 2020-1.
 29 30  0  0  1  0            999 V2000
   -0.6879   -1.2874    0.2081 N   0  0  0  0  0  0
    0.0066   -0.1229    0.1008 C   0  0  0  0  0  0
   -0.6426    1.0992   -0.0790 C   0  0  0  0  0  0
   -2.0305    1.1323   -0.1464 C   0  0  0  0  0  0
   -2.7840   -0.0687   -0.0287 C   0  0  0  0  0  0
   -4.2088   -0.1057   -0.0935 C   0  0  0  0  0  0
   -4.8628   -1.3323   -0.0037 C   0  0  0  0  0  0
   -4.1764   -2.5322    0.1714 C   0  0  0  0  0  0
   -2.7719   -2.5290    0.2429 C   0  0  0  0  0  0
   -2.0568   -1.2898    0.1440 C   0  0  0  0  0  0
    1.5192   -0.1836    0.1756 C   0  0  0  0  0  0
    2.1989    0.8396    0.0735 O   0  0  0  0  0  0
    2.0737   -1.3979    0.3638 N   0  0  0  0  0  0
   -4.9671   -3.7777    0.2763 N   0  3  0  0  0  0
   -5.8411   -3.9716   -0.5633 O   0  0  0  0  0  0
   -4.7370   -4.5408    1.2095 O   0  5  0  0  0  0
   -5.0197    1.1157   -0.2498 N   0  3  0  0  0  0
   -5.8324    1.1469   -1.1684 O   0  0  0  0  0  0
   -4.8644    2.0221    0.5622 O   0  5  0  0  0  0
   -2.1376   -3.6307    0.3720 O   0  5  0  0  0  0
    3.5094   -1.6596    0.4150 C   0  0  0  0  0  0
    4.1857   -1.3993   -0.8682 C   0  0  0  0  0  0
    4.7170   -1.1953   -1.8758 N   0  0  0  0  0  0
   -0.0883    2.0228   -0.1694 H   0  0  0  0  0  0
   -2.5263    2.0792   -0.2963 H   0  0  0  0  0  0
   -5.9430   -1.3500   -0.0533 H   0  0  0  0  0  0
    1.4662   -2.2048    0.3811 H   0  0  0  0  0  0
    3.6686   -2.7067    0.6729 H   0  0  0  0  0  0
    3.9843   -1.0615    1.1944 H   0  0  0  0  0  0
  1  2  2  0  0  0
  1 10  1  0  0  0
  2  3  1  0  0  0
  2 11  1  0  0  0
  3  4  2  0  0  0
  3 24  1  0  0  0
  4  5  1  0  0  0
  4 25  1  0  0  0
  5  6  2  0  0  0
  5 10  1  0  0  0
  6  7  1  0  0  0
  6 17  1  0  0  0
  7  8  2  0  0  0
  7 26  1  0  0  0
  8  9  1  0  0  0
  8 14  1  0  0  0
  9 10  2  0  0  0
  9 20  1  0  0  0
 11 12  2  0  0  0
 11 13  1  0  0  0
 13 21  1  0  0  0
 13 27  1  0  0  0
 14 15  2  0  0  0
 14 16  1  0  0  0
 17 18  2  0  0  0
 17 19  1  0  0  0
 21 22  1  0  0  0
 21 28  1  0  0  0
 21 29  1  0  0  0
 22 23  3  0  0  0
M  CHG  5  14   1  16  -1  17   1  19  -1  20  -1
M  END
> <chembl_id>
CHEMBL4225905

> <chembl_pref_name>
None

> <s_m_source_file>
sdf/inactives_sanitized.sdf

> <i_m_source_file_index>
343

> <i_lp_mmshare_version>
49012

> <i_m_ct_stereo_status>
1

> <i_f3d_flags>
0

> <s_epik_input>
TiNDW0NIMl1bTkhdQyg9TyljKFtjSF1bY0hdMSluYyhjMTIpYyhbT0hdKWMoW04rXSg9TylbTy1dKVtjSF1jMltOK10oPU8pW08tXQ==

> <s_epik_cmdline>
J2VwaWtfcHl0aG9uJywgJy1waHQnLCAnMC41JywgJy1waCcsICc3LjUnLCAnLW50JywgJy1tYScsICcyMDAnLCAnLWltYWUnLCAnPGluZmlsZS5tYWU+JywgJy1vbWFlJywgJzxvdXRmaWxlLm1hZT4n

> <r_lp_tautomer_probability>
1

> <r_epik_Ionization_Penalty>
  0.0001

> <r_epik_Ionization_Penalty_Charging>
  0.0000

> <r_epik_Ionization_Penalty_Neutral>
  0.0001

> <r_epik_State_Penalty>
 -0.0000

> <r_epik_Charging_Adjusted_Penalty>
2.84003174021603e-07

> <i_epik_Tot_Q>
-1

> <i_epik_Tot_abs_Q>
5

> <s_lp_Force_Field>
OPLS3e

> <r_lp_Energy>
27.804237

> <b_lp_Chiralities_Consistent>
1

> <s_lp_Variant>
sdf/inactives_sanitized.sdf:343-1

$$$$
sdf/inactives_sanitized.sdf:344
                    3D
 Schrodinger Suite 2020-1.
 77 79  0  0  1  0            999 V2000
   -1.4349    0.6157   -0.4841 C   0  0  0  0  0  0
   -0.5442   -0.6329   -0.4893 C   0  0  2  0  0  0
    1.6676    0.5592   -0.9272 C   0  0  0  0  0  0
    0.8692   -0.2780   -0.2320 N   0  0  0  0  0  0
   -1.5608    1.3735    0.9056 C   0  0  0  0  0  0
    3.6506    3.0741   -0.1883 C   0  0  0  0  0  0
    3.1469    0.6026   -0.4724 C   0  0  2  0  0  0
    3.8292    1.8578   -0.8524 N   0  0  0  0  0  0
   -2.0704    1.0044   -1.4695 O   0  0  0  0  0  0
   -0.6938   -1.4701   -1.7939 C   0  0  0  0  0  0
    1.2969    1.2189   -1.9001 O   0  0  0  0  0  0
    4.1521    4.1349   -0.5611 O   0  0  0  0  0  0
   -1.0236    0.9435    1.9282 O   0  0  0  0  0  0
    2.8880    2.9425    0.9241 O   0  0  0  0  0  0
    3.9288   -0.5991   -1.0698 C   0  0  0  0  0  0
   -2.3103    2.4882    0.8140 N   0  0  0  0  0  0
    2.6447    4.0458    1.7911 C   0  0  0  0  0  0
    0.1448   -2.7370   -1.8578 C   0  0  0  0  0  0
   -2.6341    3.3718    1.9303 C   0  0  0  0  0  0
    2.0982    3.6017    3.1453 C   0  0  0  0  0  0
   -1.8544    5.2486    3.4746 C   0  0  0  0  0  0
    5.3824   -0.7665   -0.5653 C   0  0  0  0  0  0
   -1.4482    4.2130    2.4375 C   0  0  0  0  0  0
    1.3907   -2.7354   -2.5209 C   0  0  0  0  0  0
   -0.2413   -3.8814   -1.1284 C   0  0  0  0  0  0
    1.9137    4.5751    4.1305 C   0  0  0  0  0  0
    1.7724    2.2660    3.4199 C   0  0  0  0  0  0
   -2.1105    6.5660    3.0856 C   0  0  0  0  0  0
   -1.9719    4.8779    4.8166 C   0  0  0  0  0  0
    6.0996   -1.9012   -1.3285 C   0  0  0  0  0  0
    5.4573   -0.9567    0.9649 C   0  0  0  0  0  0
    1.2656    1.9139    4.6679 C   0  0  0  0  0  0
    2.1942   -3.8674   -2.4945 C   0  0  0  0  0  0
    0.5759   -5.0042   -1.1153 C   0  0  0  0  0  0
   -2.4812    7.5113    4.0386 C   0  0  0  0  0  0
   -2.3401    5.8238    5.7694 C   0  0  0  0  0  0
    1.4110    4.2218    5.3796 C   0  0  0  0  0  0
   -2.5933    7.1362    5.3759 C   0  0  0  0  0  0
    1.0879    2.8929    5.6424 C   0  0  0  0  0  0
    1.7858   -4.9984   -1.7987 C   0  0  0  0  0  0
   -0.8458   -1.2783    0.3375 H   0  0  0  0  0  0
    1.3009   -0.8203    0.5024 H   0  0  0  0  0  0
    3.1670    0.4939    0.6139 H   0  0  0  0  0  0
    4.3681    1.8526   -1.7060 H   0  0  0  0  0  0
   -1.7379   -1.7618   -1.9208 H   0  0  0  0  0  0
   -0.4465   -0.8639   -2.6676 H   0  0  0  0  0  0
    3.3971   -1.5271   -0.8519 H   0  0  0  0  0  0
    3.9363   -0.5143   -2.1587 H   0  0  0  0  0  0
   -2.6979    2.7357   -0.0854 H   0  0  0  0  0  0
    3.5694    4.6012    1.9598 H   0  0  0  0  0  0
    1.9293    4.7220    1.3207 H   0  0  0  0  0  0
   -3.4193    4.0495    1.5928 H   0  0  0  0  0  0
   -3.1091    2.8356    2.7541 H   0  0  0  0  0  0
    5.9239    0.1502   -0.8023 H   0  0  0  0  0  0
   -0.9466    4.7078    1.6038 H   0  0  0  0  0  0
   -0.6950    3.5580    2.8721 H   0  0  0  0  0  0
    1.7248   -1.8541   -3.0491 H   0  0  0  0  0  0
   -1.1715   -3.8872   -0.5788 H   0  0  0  0  0  0
    2.1564    5.6085    3.9287 H   0  0  0  0  0  0
    1.8965    1.4947    2.6740 H   0  0  0  0  0  0
   -2.0236    6.8580    2.0491 H   0  0  0  0  0  0
   -1.7755    3.8600    5.1208 H   0  0  0  0  0  0
    6.3781   -2.7333   -0.6818 H   0  0  0  0  0  0
    7.0135   -1.5351   -1.7972 H   0  0  0  0  0  0
    5.4778   -2.3178   -2.1217 H   0  0  0  0  0  0
    4.5047   -1.2831    1.3828 H   0  0  0  0  0  0
    5.7242   -0.0198    1.4546 H   0  0  0  0  0  0
    6.2048   -1.6922    1.2617 H   0  0  0  0  0  0
    1.0089    0.8860    4.8775 H   0  0  0  0  0  0
    3.1435   -3.8647   -3.0099 H   0  0  0  0  0  0
    0.2732   -5.8831   -0.5652 H   0  0  0  0  0  0
   -2.6804    8.5306    3.7424 H   0  0  0  0  0  0
   -2.4292    5.5410    6.8080 H   0  0  0  0  0  0
    1.2656    4.9760    6.1390 H   0  0  0  0  0  0
   -2.8799    7.8701    6.1148 H   0  0  0  0  0  0
    0.6927    2.6199    6.6098 H   0  0  0  0  0  0
    2.4172   -5.8746   -1.7804 H   0  0  0  0  0  0
  1  2  1  0  0  0
  1  5  1  0  0  0
  1  9  2  0  0  0
  2  4  1  0  0  0
  2 10  1  0  0  0
  2 41  1  0  0  0
  3  4  1  0  0  0
  3  7  1  0  0  0
  3 11  2  0  0  0
  4 42  1  0  0  0
  5 13  2  0  0  0
  5 16  1  0  0  0
  6  8  1  0  0  0
  6 12  2  0  0  0
  6 14  1  0  0  0
  7  8  1  0  0  0
  7 15  1  0  0  0
  7 43  1  0  0  0
  8 44  1  0  0  0
 10 18  1  0  0  0
 10 45  1  0  0  0
 10 46  1  0  0  0
 14 17  1  0  0  0
 15 22  1  0  0  0
 15 47  1  0  0  0
 15 48  1  0  0  0
 16 19  1  0  0  0
 16 49  1  0  0  0
 17 20  1  0  0  0
 17 50  1  0  0  0
 17 51  1  0  0  0
 18 24  2  0  0  0
 18 25  1  0  0  0
 19 23  1  0  0  0
 19 52  1  0  0  0
 19 53  1  0  0  0
 20 26  2  0  0  0
 20 27  1  0  0  0
 21 23  1  0  0  0
 21 28  2  0  0  0
 21 29  1  0  0  0
 22 30  1  0  0  0
 22 31  1  0  0  0
 22 54  1  0  0  0
 23 55  1  0  0  0
 23 56  1  0  0  0
 24 33  1  0  0  0
 24 57  1  0  0  0
 25 34  2  0  0  0
 25 58  1  0  0  0
 26 37  1  0  0  0
 26 59  1  0  0  0
 27 32  2  0  0  0
 27 60  1  0  0  0
 28 35  1  0  0  0
 28 61  1  0  0  0
 29 36  2  0  0  0
 29 62  1  0  0  0
 30 63  1  0  0  0
 30 64  1  0  0  0
 30 65  1  0  0  0
 31 66  1  0  0  0
 31 67  1  0  0  0
 31 68  1  0  0  0
 32 39  1  0  0  0
 32 69  1  0  0  0
 33 40  2  0  0  0
 33 70  1  0  0  0
 34 40  1  0  0  0
 34 71  1  0  0  0
 35 38  2  0  0  0
 35 72  1  0  0  0
 36 38  1  0  0  0
 36 73  1  0  0  0
 37 39  2  0  0  0
 37 74  1  0  0  0
 38 75  1  0  0  0
 39 76  1  0  0  0
 40 77  1  0  0  0
M  END
> <chembl_id>
CHEMBL331850

> <chembl_pref_name>
None

> <s_m_source_file>
sdf/inactives_sanitized.sdf

> <i_m_source_file_index>
344

> <i_lp_mmshare_version>
49012

> <i_m_ct_stereo_status>
1

> <i_f3d_flags>
0

> <s_epik_input>
W2NIXTFbY0hdW2NIXVtjSF1bY0hdYzFbQ0gyXVtDSDJdW05IXUMoPU8pQyg9TylbQ0BASF0oW0NIMl1jMltjSF1bY0hdW2NIXVtjSF1bY0hdMilbTkhdQyg9TylbQ0BASF0oW0NIMl1bQ0hdKFtDSDNdKVtDSDNdKVtOSF1DKD1PKU9bQ0gyXWMzW2NIXVtjSF1bY0hdW2NIXVtjSF0z

> <s_epik_cmdline>
J2VwaWtfcHl0aG9uJywgJy1waHQnLCAnMC41JywgJy1waCcsICc3LjUnLCAnLW50JywgJy1tYScsICcyMDAnLCAnLWltYWUnLCAnPGluZmlsZS5tYWU+JywgJy1vbWFlJywgJzxvdXRmaWxlLm1hZT4n

> <r_lp_tautomer_probability>
1

> <r_epik_Ionization_Penalty>
  0.0000

> <r_epik_Ionization_Penalty_Charging>
  0.0000

> <r_epik_Ionization_Penalty_Neutral>
  0.0000

> <r_epik_State_Penalty>
 -0.0000

> <r_epik_Charging_Adjusted_Penalty>
0

> <i_epik_Tot_Q>
0

> <i_epik_Tot_abs_Q>
0

> <s_epik_Chemistry_Notes>
This compound has an ester and may undergo hydrolysis at high or low pH.

> <s_lp_Force_Field>
OPLS3e

> <r_lp_Energy>
40.226242

> <b_lp_Chiralities_Consistent>
1

> <s_lp_Variant>
sdf/inactives_sanitized.sdf:344-1

$$$$
sdf/inactives_sanitized.sdf:345
                    3D
 Schrodinger Suite 2020-1.
 70 71  0  0  1  0            999 V2000
   -0.8077    0.6535    0.5205 C   0  0  0  0  0  0
    0.1220   -0.1016   -0.0900 N   0  0  0  0  0  0
   -2.9440   -0.3776    2.6522 C   0  0  0  0  0  0
   -2.2749    0.2047    0.3203 C   0  0  1  0  0  0
   -3.1031    0.4166    1.5208 N   0  0  0  0  0  0
    2.0538    0.0463   -1.4282 C   0  0  0  0  0  0
    1.5718    0.0909    0.0139 C   0  0  2  0  0  0
   -0.5533    1.6596    1.1856 O   0  0  0  0  0  0
   -2.1849   -1.3442    2.7664 O   0  0  0  0  0  0
   -3.7517    0.0855    3.6248 O   0  0  0  0  0  0
   -2.9031    0.9636   -0.8796 C   0  0  0  0  0  0
    2.5551   -0.9547   -1.9422 O   0  0  0  0  0  0
    2.2359   -0.9885    0.9081 C   0  0  0  0  0  0
   -3.7677   -0.5262    4.9086 C   0  0  0  0  0  0
    1.8394   -0.8855    2.3958 C   0  0  0  0  0  0
    2.4599   -1.9785    3.2526 C   0  0  0  0  0  0
   -4.6374    0.2892    5.8465 C   0  0  0  0  0  0
    1.9506    1.3419   -2.2421 C   0  0  0  0  0  0
    0.6073    1.8010   -2.2751 O   0  0  0  0  0  0
   -4.3091    0.4823   -1.3111 C   0  0  0  0  0  0
    0.4597    3.0429   -2.9444 C   0  0  0  0  0  0
    1.7412   -3.1472    3.5185 C   0  0  0  0  0  0
   -5.9603   -0.0932    6.0802 C   0  0  0  0  0  0
    3.7470   -1.8127    3.7712 C   0  0  0  0  0  0
   -4.1100    1.4211    6.4727 C   0  0  0  0  0  0
   -4.3185   -0.9980   -1.7489 C   0  0  0  0  0  0
   -4.9003    1.4114   -2.3933 C   0  0  0  0  0  0
   -1.0161    3.4505   -2.9109 C   0  0  0  0  0  0
   -4.9065    2.1713    7.3339 C   0  0  0  0  0  0
    2.3087   -4.1483    4.3026 C   0  0  0  0  0  0
    4.3137   -2.8142    4.5554 C   0  0  0  0  0  0
   -6.7562    0.6573    6.9422 C   0  0  0  0  0  0
    3.5921   -3.9771    4.8173 C   0  0  0  0  0  0
   -6.2256    1.7856    7.5649 C   0  0  0  0  0  0
   -0.1726   -0.9305   -0.5859 H   0  0  0  0  0  0
   -2.2761   -0.8618    0.0822 H   0  0  0  0  0  0
   -3.6855    1.2397    1.5700 H   0  0  0  0  0  0
    1.8210    1.0704    0.4291 H   0  0  0  0  0  0
   -2.9489    2.0281   -0.6402 H   0  0  0  0  0  0
   -2.2441    0.8884   -1.7471 H   0  0  0  0  0  0
    1.9808   -1.9885    0.5500 H   0  0  0  0  0  0
    3.3236   -0.9276    0.8338 H   0  0  0  0  0  0
   -4.1483   -1.5467    4.8393 H   0  0  0  0  0  0
   -2.7592   -0.5913    5.3212 H   0  0  0  0  0  0
    2.1284    0.0885    2.7942 H   0  0  0  0  0  0
    0.7547   -0.9240    2.5074 H   0  0  0  0  0  0
    2.5946    2.0923   -1.7812 H   0  0  0  0  0  0
    2.3103    1.1678   -3.2574 H   0  0  0  0  0  0
   -4.9663    0.5673   -0.4447 H   0  0  0  0  0  0
    1.0630    3.8105   -2.4564 H   0  0  0  0  0  0
    0.7977    2.9596   -3.9790 H   0  0  0  0  0  0
    0.7458   -3.2805    3.1194 H   0  0  0  0  0  0
   -6.3718   -0.9671    5.5959 H   0  0  0  0  0  0
    4.3072   -0.9117    3.5671 H   0  0  0  0  0  0
   -3.0872    1.7194    6.2916 H   0  0  0  0  0  0
   -3.3171   -1.3615   -1.9808 H   0  0  0  0  0  0
   -4.9335   -1.1712   -2.6320 H   0  0  0  0  0  0
   -4.7195   -1.6295   -0.9556 H   0  0  0  0  0  0
   -4.9899    0.9225   -3.3635 H   0  0  0  0  0  0
   -4.2894    2.3014   -2.5480 H   0  0  0  0  0  0
   -5.8959    1.7529   -2.1083 H   0  0  0  0  0  0
   -1.1694    4.4042   -3.4160 H   0  0  0  0  0  0
   -1.3696    3.5575   -1.8851 H   0  0  0  0  0  0
   -1.6417    2.7073   -3.4061 H   0  0  0  0  0  0
   -4.5039    3.0475    7.8204 H   0  0  0  0  0  0
    1.7563   -5.0526    4.5106 H   0  0  0  0  0  0
    5.3082   -2.6903    4.9584 H   0  0  0  0  0  0
   -7.7800    0.3664    7.1268 H   0  0  0  0  0  0
    4.0321   -4.7538    5.4254 H   0  0  0  0  0  0
   -6.8430    2.3671    8.2335 H   0  0  0  0  0  0
  1  2  1  0  0  0
  1  4  1  0  0  0
  1  8  2  0  0  0
  2  7  1  0  0  0
  2 35  1  0  0  0
  3  5  1  0  0  0
  3  9  2  0  0  0
  3 10  1  0  0  0
  4  5  1  0  0  0
  4 11  1  0  0  0
  4 36  1  0  0  0
  5 37  1  0  0  0
  6  7  1  0  0  0
  6 12  2  0  0  0
  6 18  1  0  0  0
  7 13  1  0  0  0
  7 38  1  0  0  0
 10 14  1  0  0  0
 11 20  1  0  0  0
 11 39  1  0  0  0
 11 40  1  0  0  0
 13 15  1  0  0  0
 13 41  1  0  0  0
 13 42  1  0  0  0
 14 17  1  0  0  0
 14 43  1  0  0  0
 14 44  1  0  0  0
 15 16  1  0  0  0
 15 45  1  0  0  0
 15 46  1  0  0  0
 16 22  2  0  0  0
 16 24  1  0  0  0
 17 23  2  0  0  0
 17 25  1  0  0  0
 18 19  1  0  0  0
 18 47  1  0  0  0
 18 48  1  0  0  0
 19 21  1  0  0  0
 20 26  1  0  0  0
 20 27  1  0  0  0
 20 49  1  0  0  0
 21 28  1  0  0  0
 21 50  1  0  0  0
 21 51  1  0  0  0
 22 30  1  0  0  0
 22 52  1  0  0  0
 23 32  1  0  0  0
 23 53  1  0  0  0
 24 31  2  0  0  0
 24 54  1  0  0  0
 25 29  2  0  0  0
 25 55  1  0  0  0
 26 56  1  0  0  0
 26 57  1  0  0  0
 26 58  1  0  0  0
 27 59  1  0  0  0
 27 60  1  0  0  0
 27 61  1  0  0  0
 28 62  1  0  0  0
 28 63  1  0  0  0
 28 64  1  0  0  0
 29 34  1  0  0  0
 29 65  1  0  0  0
 30 33  2  0  0  0
 30 66  1  0  0  0
 31 33  1  0  0  0
 31 67  1  0  0  0
 32 34  2  0  0  0
 32 68  1  0  0  0
 33 69  1  0  0  0
 34 70  1  0  0  0
M  END
> <chembl_id>
CHEMBL327290

> <chembl_pref_name>
None

> <i_m_ct_stereo_status>
1

> <s_m_source_file>
sdf/inactives_sanitized.sdf

> <i_m_source_file_index>
345

> <i_lp_mmshare_version>
49012

> <i_f3d_flags>
0

> <s_epik_input>
W2NIXTFbY0hdW2NIXVtjSF1bY0hdYzFbQ0gyXVtDSDJdW0NAQEhdKEMoPU8pW0NIMl1PW0NIMl1bQ0gzXSlbTkhdQyg9TylbQ0BIXShbQ0gyXVtDSF0oW0NIM10pW0NIM10pW05IXUMoPU8pT1tDSDJdYzJbY0hdW2NIXVtjSF1bY0hdW2NIXTI=

> <s_epik_cmdline>
J2VwaWtfcHl0aG9uJywgJy1waHQnLCAnMC41JywgJy1waCcsICc3LjUnLCAnLW50JywgJy1tYScsICcyMDAnLCAnLWltYWUnLCAnPGluZmlsZS5tYWU+JywgJy1vbWFlJywgJzxvdXRmaWxlLm1hZT4n

> <r_lp_tautomer_probability>
1

> <r_epik_Ionization_Penalty>
  0.0000

> <r_epik_Ionization_Penalty_Charging>
  0.0000

> <r_epik_Ionization_Penalty_Neutral>
  0.0000

> <r_epik_State_Penalty>
 -0.0000

> <r_epik_Charging_Adjusted_Penalty>
0

> <i_epik_Tot_Q>
0

> <i_epik_Tot_abs_Q>
0

> <s_epik_Chemistry_Notes>
This compound has an ester and may undergo hydrolysis at high or low pH.

> <s_lp_Force_Field>
OPLS3e

> <r_lp_Energy>
39.424753

> <b_lp_Chiralities_Consistent>
1

> <s_lp_Variant>
sdf/inactives_sanitized.sdf:345-1

$$$$
sdf/inactives_sanitized.sdf:346
                    3D
 Schrodinger Suite 2020-1.
 74 77  0  0  1  0            999 V2000
   -8.9744    2.5284    3.1091 C   0  0  0  0  0  0
   -8.7336    2.0221    4.3852 C   0  0  0  0  0  0
   -7.4648    1.5594    4.7211 C   0  0  0  0  0  0
   -6.4361    1.6071    3.7841 C   0  0  0  0  0  0
   -6.6620    2.1289    2.4996 C   0  0  0  0  0  0
   -7.9517    2.5857    2.1499 C   0  0  0  0  0  0
   -5.6369    2.1651    1.5364 N   0  0  0  0  0  0
   -4.2741    2.3438    1.7455 C   0  0  0  0  0  0
   -3.7071    2.5173    2.8270 O   0  0  0  0  0  0
   -3.6486    2.3093    0.5484 O   0  0  0  0  0  0
   -2.2278    2.4095    0.4364 C   0  0  0  0  0  0
   -1.5034    1.0807    0.7776 C   0  0  1  0  0  0
   -1.8648    0.0861   -0.2325 N   0  0  0  0  0  0
   -1.6689   -1.1592    0.0140 C   0  0  0  0  0  0
    0.0421    1.2397    0.8610 C   0  0  0  0  0  0
    0.7042    0.1055    1.2764 N   0  0  0  0  0  0
   -2.0427   -2.1601   -1.0123 C   0  0  0  0  0  0
   -3.2330   -2.0174   -1.7414 C   0  0  0  0  0  0
   -3.5821   -2.9570   -2.7078 C   0  0  0  0  0  0
   -2.7431   -4.0409   -2.9524 C   0  0  0  0  0  0
   -1.5557   -4.1925   -2.2416 C   0  0  0  0  0  0
   -1.2030   -3.2527   -1.2770 C   0  0  0  0  0  0
   -1.0449   -1.6598    1.2755 C   0  0  0  0  0  0
    0.0689   -1.0178    1.8993 C   0  0  0  0  0  0
    0.6232   -1.6389    3.0338 C   0  0  0  0  0  0
    0.0674   -2.7808    3.6002 C   0  0  0  0  0  0
   -1.0517   -3.3611    3.0235 C   0  0  0  0  0  0
   -1.5975   -2.8066    1.8726 C   0  0  0  0  0  0
    0.5914    2.2960    0.5313 O   0  0  0  0  0  0
    2.1909    0.1891    1.2779 C   0  0  0  0  0  0
    2.7727   -0.1928   -0.1016 C   0  0  0  0  0  0
    4.1134   -0.2828   -0.1516 N   0  0  0  0  0  0
    2.0503   -0.4176   -1.0769 O   0  0  0  0  0  0
    4.8905   -0.6549   -1.3400 C   0  0  0  0  0  0
    4.8289   -2.1078   -1.8136 C   0  0  0  0  0  0
    4.1420   -3.1238   -1.2533 C   0  0  0  0  0  0
    4.1568   -4.7693   -1.9826 S   0  0  0  0  0  0
    2.3606   -5.0244   -2.5341 C   0  0  0  0  0  0
    5.0084   -4.7533   -3.1780 O   0  0  0  0  0  0
    4.4376   -5.7193   -0.9012 O   0  0  0  0  0  0
   -8.2562    3.1473    0.7523 C   0  0  0  0  0  0
   -7.4795    4.2037    0.5085 F   0  0  0  0  0  0
   -8.0146    2.2162   -0.1716 F   0  0  0  0  0  0
   -9.5257    3.5358    0.6161 F   0  0  0  0  0  0
  -10.0094    1.9624    5.5462 Cl  0  0  0  0  0  0
    1.9540   -3.9922   -3.5970 C   0  0  0  0  0  0
   -9.9694    2.8760    2.8724 H   0  0  0  0  0  0
   -7.2753    1.1578    5.7059 H   0  0  0  0  0  0
   -5.4684    1.2219    4.0688 H   0  0  0  0  0  0
   -5.9387    2.1386    0.5734 H   0  0  0  0  0  0
   -1.9924    2.7042   -0.5874 H   0  0  0  0  0  0
   -1.8686    3.2209    1.0727 H   0  0  0  0  0  0
   -1.8580    0.7883    1.7698 H   0  0  0  0  0  0
   -3.8972   -1.1834   -1.5615 H   0  0  0  0  0  0
   -4.5007   -2.8453   -3.2647 H   0  0  0  0  0  0
   -3.0149   -4.7695   -3.7018 H   0  0  0  0  0  0
   -0.9089   -5.0343   -2.4398 H   0  0  0  0  0  0
   -0.2719   -3.3803   -0.7427 H   0  0  0  0  0  0
    1.4827   -1.2128    3.5281 H   0  0  0  0  0  0
    0.5042   -3.2128    4.4885 H   0  0  0  0  0  0
   -1.4913   -4.2455    3.4607 H   0  0  0  0  0  0
   -2.4615   -3.2919    1.4400 H   0  0  0  0  0  0
    2.5365    1.1884    1.5492 H   0  0  0  0  0  0
    2.6383   -0.4732    2.0156 H   0  0  0  0  0  0
    4.6386   -0.1431    0.6994 H   0  0  0  0  0  0
    4.6451    0.0123   -2.1682 H   0  0  0  0  0  0
    5.9376   -0.4447   -1.1212 H   0  0  0  0  0  0
    5.4063   -2.3018   -2.7057 H   0  0  0  0  0  0
    3.5476   -3.0109   -0.3593 H   0  0  0  0  0  0
    2.2858   -6.0382   -2.9272 H   0  0  0  0  0  0
    1.7255   -4.9571   -1.6507 H   0  0  0  0  0  0
    0.9455   -4.1858   -3.9616 H   0  0  0  0  0  0
    2.6254   -4.0222   -4.4554 H   0  0  0  0  0  0
    1.9676   -2.9783   -3.1961 H   0  0  0  0  0  0
  1  6  2  0  0  0
  1  2  1  0  0  0
  1 47  1  0  0  0
  2  3  2  0  0  0
  2 45  1  0  0  0
  3  4  1  0  0  0
  3 48  1  0  0  0
  4  5  2  0  0  0
  4 49  1  0  0  0
  5  6  1  0  0  0
  5  7  1  0  0  0
  6 41  1  0  0  0
  7  8  1  0  0  0
  7 50  1  0  0  0
  8  9  2  0  0  0
  8 10  1  0  0  0
 10 11  1  0  0  0
 11 12  1  0  0  0
 11 51  1  0  0  0
 11 52  1  0  0  0
 12 13  1  0  0  0
 12 15  1  0  0  0
 12 53  1  0  0  0
 13 14  2  0  0  0
 14 17  1  0  0  0
 14 23  1  0  0  0
 15 29  2  0  0  0
 15 16  1  0  0  0
 16 30  1  0  0  0
 16 24  1  0  0  0
 17 22  1  0  0  0
 17 18  2  0  0  0
 18 19  1  0  0  0
 18 54  1  0  0  0
 19 20  2  0  0  0
 19 55  1  0  0  0
 20 21  1  0  0  0
 20 56  1  0  0  0
 21 22  2  0  0  0
 21 57  1  0  0  0
 22 58  1  0  0  0
 23 24  2  0  0  0
 23 28  1  0  0  0
 24 25  1  0  0  0
 25 26  2  0  0  0
 25 59  1  0  0  0
 26 27  1  0  0  0
 26 60  1  0  0  0
 27 28  2  0  0  0
 27 61  1  0  0  0
 28 62  1  0  0  0
 30 31  1  0  0  0
 30 63  1  0  0  0
 30 64  1  0  0  0
 31 32  1  0  0  0
 31 33  2  0  0  0
 32 34  1  0  0  0
 32 65  1  0  0  0
 34 35  1  0  0  0
 34 66  1  0  0  0
 34 67  1  0  0  0
 35 36  2  0  0  0
 35 68  1  0  0  0
 36 37  1  0  0  0
 36 69  1  0  0  0
 37 38  1  0  0  0
 37 39  2  0  0  0
 37 40  2  0  0  0
 38 46  1  0  0  0
 38 70  1  0  0  0
 38 71  1  0  0  0
 41 42  1  0  0  0
 41 43  1  0  0  0
 41 44  1  0  0  0
 46 72  1  0  0  0
 46 73  1  0  0  0
 46 74  1  0  0  0
M  END
> <chembl_id>
CHEMBL270278

> <chembl_pref_name>
None

> <i_m_ct_stereo_status>
1

> <s_m_source_file>
sdf/inactives_sanitized.sdf

> <i_m_source_file_index>
346

> <i_lp_mmshare_version>
49012

> <i_f3d_flags>
0

> <s_epik_input>
Q2xjMVtjSF1jKEMoRikoRilGKWMoW2NIXVtjSF0xKVtOSF1DKD1PKU9bQ0gyXVtDQEBIXShOPUMyYzNbY0hdW2NIXVtjSF1bY0hdW2NIXTMpQyg9TylOKGMoYzI0KVtjSF1bY0hdW2NIXVtjSF00KVtDSDJdQyg9TylbTkhdW0NIMl0vW0NIXT1bQ0hdL1MoPU8pKD1PKVtDSDJdW0NIM10=

> <s_epik_cmdline>
J2VwaWtfcHl0aG9uJywgJy1waHQnLCAnMC41JywgJy1waCcsICc3LjUnLCAnLW50JywgJy1tYScsICcyMDAnLCAnLWltYWUnLCAnPGluZmlsZS5tYWU+JywgJy1vbWFlJywgJzxvdXRmaWxlLm1hZT4n

> <r_lp_tautomer_probability>
1

> <r_epik_Ionization_Penalty>
  0.0001

> <r_epik_Ionization_Penalty_Charging>
  0.0000

> <r_epik_Ionization_Penalty_Neutral>
  0.0001

> <r_epik_State_Penalty>
 -0.0000

> <r_epik_Charging_Adjusted_Penalty>
0

> <i_epik_Tot_Q>
0

> <i_epik_Tot_abs_Q>
0

> <s_epik_Chemistry_Notes>
This compound has an ester and may undergo hydrolysis at high or low pH. This compound has an imine and may undergo hydrolysis.

> <s_lp_Force_Field>
OPLS3e

> <r_lp_Energy>
60.385324

> <b_lp_Chiralities_Consistent>
1

> <s_lp_Variant>
sdf/inactives_sanitized.sdf:346-1

$$$$
sdf/inactives_sanitized.sdf:347
                    3D
 Schrodinger Suite 2020-1.
 74 74  0  0  1  0            999 V2000
   -4.3443    1.9467    5.5980 C   0  0  0  0  0  0
   -4.0960    3.3200    5.5128 C   0  0  0  0  0  0
   -4.8498    4.2110    6.2722 C   0  0  0  0  0  0
   -5.8458    3.7259    7.1172 C   0  0  0  0  0  0
   -6.0946    2.3578    7.2104 C   0  0  0  0  0  0
   -5.3418    1.4661    6.4501 C   0  0  0  0  0  0
   -3.5197    0.9711    4.7747 C   0  0  0  0  0  0
   -3.6114    1.3014    3.3933 O   0  0  0  0  0  0
   -2.9057    0.6187    2.4722 C   0  0  0  0  0  0
   -2.1603   -0.3338    2.7179 O   0  0  0  0  0  0
   -3.1522    1.1721    1.2196 N   0  0  0  0  0  0
   -2.4631    0.6785    0.0151 C   0  0  2  0  0  0
   -0.9774    1.1078   -0.0010 C   0  0  0  0  0  0
   -3.2015    1.2155   -1.2423 C   0  0  0  0  0  0
   -4.6555    0.7140   -1.4215 C   0  0  0  0  0  0
   -4.7388   -0.8211   -1.5642 C   0  0  0  0  0  0
   -5.3541    1.4468   -2.5876 C   0  0  0  0  0  0
   -0.6848    2.3052   -0.0072 O   0  0  0  0  0  0
   -0.0769    0.1106   -0.0059 N   0  0  0  0  0  0
    1.3740    0.2959    0.0169 C   0  0  2  0  0  0
    1.9135    0.7108   -1.3612 C   0  0  0  0  0  0
    2.0461   -1.0158    0.4850 C   0  0  0  0  0  0
    1.6541   -1.4772    1.9090 C   0  0  0  0  0  0
    1.9925   -0.4265    2.9879 C   0  0  0  0  0  0
    2.9678    1.5435   -1.3438 N   0  0  0  0  0  0
    1.4041    0.2546   -2.3853 O   0  0  0  0  0  0
    2.2644   -2.8587    2.2286 C   0  0  0  0  0  0
    3.6621    2.0669   -2.5239 C   0  0  1  0  0  0
    4.4900    1.0056   -3.2916 C   0  0  0  0  0  0
    5.4537    0.1467   -2.4343 C   0  0  0  0  0  0
    6.4893    0.9972   -1.6746 C   0  0  0  0  0  0
    6.1471   -0.9268   -3.2919 C   0  0  0  0  0  0
    2.7492    2.8006   -3.4228 C   0  0  0  0  0  0
    2.0344    3.3767   -4.1276 N   0  0  0  0  0  0
   -3.3225    3.6965    4.8590 H   0  0  0  0  0  0
   -4.6627    5.2728    6.2065 H   0  0  0  0  0  0
   -6.4302    4.4170    7.7066 H   0  0  0  0  0  0
   -6.8675    1.9905    7.8695 H   0  0  0  0  0  0
   -5.5363    0.4057    6.5246 H   0  0  0  0  0  0
   -2.4823    1.0138    5.1111 H   0  0  0  0  0  0
   -3.8740   -0.0489    4.9342 H   0  0  0  0  0  0
   -3.7057    2.0134    1.1498 H   0  0  0  0  0  0
   -2.5177   -0.4127   -0.0036 H   0  0  0  0  0  0
   -3.2027    2.3076   -1.2166 H   0  0  0  0  0  0
   -2.6394    0.9483   -2.1395 H   0  0  0  0  0  0
   -5.2086    0.9834   -0.5208 H   0  0  0  0  0  0
   -3.7701   -1.2634   -1.7983 H   0  0  0  0  0  0
   -5.4289   -1.1348   -2.3473 H   0  0  0  0  0  0
   -5.0879   -1.2740   -0.6358 H   0  0  0  0  0  0
   -5.5788    0.7872   -3.4257 H   0  0  0  0  0  0
   -4.7446    2.2591   -2.9850 H   0  0  0  0  0  0
   -6.2963    1.8861   -2.2587 H   0  0  0  0  0  0
   -0.3986   -0.8464   -0.0090 H   0  0  0  0  0  0
    1.6068    1.0932    0.7249 H   0  0  0  0  0  0
    1.8026   -1.8080   -0.2256 H   0  0  0  0  0  0
    3.1308   -0.9015    0.4423 H   0  0  0  0  0  0
    0.5722   -1.6156    1.9268 H   0  0  0  0  0  0
    2.3933   -0.8724    3.8980 H   0  0  0  0  0  0
    1.0982    0.1281    3.2747 H   0  0  0  0  0  0
    2.7277    0.2977    2.6362 H   0  0  0  0  0  0
    3.2998    1.8762   -0.4503 H   0  0  0  0  0  0
    2.7590   -3.2976    1.3615 H   0  0  0  0  0  0
    1.4906   -3.5593    2.5438 H   0  0  0  0  0  0
    3.0076   -2.8166    3.0251 H   0  0  0  0  0  0
    4.3441    2.8324   -2.1532 H   0  0  0  0  0  0
    3.8006    0.3402   -3.8143 H   0  0  0  0  0  0
    5.0584    1.5067   -4.0771 H   0  0  0  0  0  0
    4.8597   -0.3845   -1.6892 H   0  0  0  0  0  0
    7.0984    1.5895   -2.3586 H   0  0  0  0  0  0
    7.1632    0.3691   -1.0906 H   0  0  0  0  0  0
    6.0106    1.6829   -0.9756 H   0  0  0  0  0  0
    6.7741   -0.4785   -4.0638 H   0  0  0  0  0  0
    5.4179   -1.5684   -3.7881 H   0  0  0  0  0  0
    6.7819   -1.5713   -2.6825 H   0  0  0  0  0  0
  1  6  2  0  0  0
  1  2  1  0  0  0
  1  7  1  0  0  0
  2  3  2  0  0  0
  2 35  1  0  0  0
  3  4  1  0  0  0
  3 36  1  0  0  0
  4  5  2  0  0  0
  4 37  1  0  0  0
  5  6  1  0  0  0
  5 38  1  0  0  0
  6 39  1  0  0  0
  7  8  1  0  0  0
  7 40  1  0  0  0
  7 41  1  0  0  0
  8  9  1  0  0  0
  9 10  2  0  0  0
  9 11  1  0  0  0
 11 12  1  0  0  0
 11 42  1  0  0  0
 12 13  1  0  0  0
 12 14  1  0  0  0
 12 43  1  0  0  0
 13 18  2  0  0  0
 13 19  1  0  0  0
 14 15  1  0  0  0
 14 44  1  0  0  0
 14 45  1  0  0  0
 15 17  1  0  0  0
 15 16  1  0  0  0
 15 46  1  0  0  0
 16 47  1  0  0  0
 16 48  1  0  0  0
 16 49  1  0  0  0
 17 50  1  0  0  0
 17 51  1  0  0  0
 17 52  1  0  0  0
 19 20  1  0  0  0
 19 53  1  0  0  0
 20 21  1  0  0  0
 20 22  1  0  0  0
 20 54  1  0  0  0
 21 25  1  0  0  0
 21 26  2  0  0  0
 22 23  1  0  0  0
 22 55  1  0  0  0
 22 56  1  0  0  0
 23 24  1  0  0  0
 23 27  1  0  0  0
 23 57  1  0  0  0
 24 58  1  0  0  0
 24 59  1  0  0  0
 24 60  1  0  0  0
 25 28  1  0  0  0
 25 61  1  0  0  0
 27 62  1  0  0  0
 27 63  1  0  0  0
 27 64  1  0  0  0
 28 29  1  0  0  0
 28 33  1  0  0  0
 28 65  1  0  0  0
 29 30  1  0  0  0
 29 66  1  0  0  0
 29 67  1  0  0  0
 30 31  1  0  0  0
 30 32  1  0  0  0
 30 68  1  0  0  0
 31 69  1  0  0  0
 31 70  1  0  0  0
 31 71  1  0  0  0
 32 72  1  0  0  0
 32 73  1  0  0  0
 32 74  1  0  0  0
 33 34  3  0  0  0
M  END
> <chembl_id>
CHEMBL206525

> <chembl_pref_name>
None

> <i_m_ct_stereo_status>
1

> <s_m_source_file>
sdf/inactives_sanitized.sdf

> <i_m_source_file_index>
347

> <i_lp_mmshare_version>
49012

> <i_f3d_flags>
0

> <s_epik_input>
W2NIXTFbY0hdW2NIXVtjSF1bY0hdYzFbQ0gyXU9DKD1PKVtOSF1bQ0BASF0oW0NIMl1bQ0hdKFtDSDNdKVtDSDNdKUMoPU8pW05IXVtDQEBIXShbQ0gyXVtDSF0oW0NIM10pW0NIM10pQyg9TylbTkhdW0NASF0oQyNOKVtDSDJdW0NIXShbQ0gzXSlbQ0gzXQ==

> <s_epik_cmdline>
J2VwaWtfcHl0aG9uJywgJy1waHQnLCAnMC41JywgJy1waCcsICc3LjUnLCAnLW50JywgJy1tYScsICcyMDAnLCAnLWltYWUnLCAnPGluZmlsZS5tYWU+JywgJy1vbWFlJywgJzxvdXRmaWxlLm1hZT4n

> <r_lp_tautomer_probability>
1

> <r_epik_Ionization_Penalty>
  0.0000

> <r_epik_Ionization_Penalty_Charging>
  0.0000

> <r_epik_Ionization_Penalty_Neutral>
  0.0000

> <r_epik_State_Penalty>
 -0.0000

> <r_epik_Charging_Adjusted_Penalty>
0

> <i_epik_Tot_Q>
0

> <i_epik_Tot_abs_Q>
0

> <s_epik_Chemistry_Notes>
This compound has an ester and may undergo hydrolysis at high or low pH.

> <s_lp_Force_Field>
OPLS3e

> <r_lp_Energy>
19.405793

> <b_lp_Chiralities_Consistent>
1

> <s_lp_Variant>
sdf/inactives_sanitized.sdf:347-1

$$$$
sdf/inactives_sanitized.sdf:348
                    3D
 Schrodinger Suite 2020-1.
 64 65  0  0  1  0            999 V2000
    0.0219    0.1292    0.3290 C   0  0  0  0  0  0
   -0.5190    1.2387   -0.2040 N   0  0  0  0  0  0
    2.2473   -0.0607    2.6319 C   0  0  0  0  0  0
    1.5627    0.0215    0.2331 C   0  0  1  0  0  0
    2.1608   -0.6737    1.3865 N   0  0  0  0  0  0
   -2.2782    1.9725   -1.5914 C   0  0  0  0  0  0
   -1.9405    1.5997   -0.1586 C   0  0  2  0  0  0
   -0.6318   -0.7756    0.8520 O   0  0  0  0  0  0
    1.9047    1.0932    2.9049 O   0  0  0  0  0  0
    2.7699   -0.9371    3.5104 O   0  0  0  0  0  0
    1.9739   -0.7105   -1.0735 C   0  0  0  0  0  0
   -1.7356    2.9148   -2.1784 O   0  0  0  0  0  0
   -2.2191    2.7771    0.8086 C   0  0  0  0  0  0
    2.9832   -0.5681    4.8676 C   0  0  0  0  0  0
   -1.9321    2.4474    2.2883 C   0  0  0  0  0  0
   -2.1638    3.6337    3.2117 C   0  0  0  0  0  0
    3.4760   -1.7702    5.6533 C   0  0  0  0  0  0
   -3.3650    1.1127   -2.2610 C   0  0  0  0  0  0
   -3.5968    1.5359   -3.5929 O   0  0  0  0  0  0
    3.4909   -0.7021   -1.3842 C   0  0  0  0  0  0
    2.6619   -2.3404    6.6352 C   0  0  0  0  0  0
   -1.1112    4.5068    3.5003 C   0  0  0  0  0  0
    4.7435   -2.2996    5.3963 C   0  0  0  0  0  0
   -3.4285    3.8520    3.7650 C   0  0  0  0  0  0
    4.0479    0.7269   -1.5635 C   0  0  0  0  0  0
    3.8148   -1.6101   -2.5903 C   0  0  0  0  0  0
   -3.6396    4.9415    4.6062 C   0  0  0  0  0  0
    5.1948   -3.4015    6.1184 C   0  0  0  0  0  0
    3.1141   -3.4418    7.3574 C   0  0  0  0  0  0
   -1.3234    5.5962    4.3413 C   0  0  0  0  0  0
   -2.5864    5.8087    4.8902 C   0  0  0  0  0  0
    4.3778   -3.9675    7.0954 C   0  0  0  0  0  0
    0.0947    1.9455   -0.5831 H   0  0  0  0  0  0
    1.9678    1.0356    0.1914 H   0  0  0  0  0  0
    2.3890   -1.6531    1.2982 H   0  0  0  0  0  0
   -2.5528    0.7507    0.1551 H   0  0  0  0  0  0
    1.6227   -1.7437   -1.0254 H   0  0  0  0  0  0
    1.4540   -0.2679   -1.9258 H   0  0  0  0  0  0
   -1.6197    3.6466    0.5294 H   0  0  0  0  0  0
   -3.2566    3.1056    0.7193 H   0  0  0  0  0  0
    3.7226    0.2319    4.9324 H   0  0  0  0  0  0
    2.0589   -0.1897    5.3083 H   0  0  0  0  0  0
   -2.5512    1.6095    2.6132 H   0  0  0  0  0  0
   -0.9044    2.1023    2.4126 H   0  0  0  0  0  0
   -3.0518    0.0684   -2.2622 H   0  0  0  0  0  0
   -4.2911    1.1852   -1.6903 H   0  0  0  0  0  0
   -4.2667    0.9700   -3.9836 H   0  0  0  0  0  0
    4.0045   -1.1419   -0.5283 H   0  0  0  0  0  0
    1.6817   -1.9341    6.8388 H   0  0  0  0  0  0
   -0.1319    4.3431    3.0737 H   0  0  0  0  0  0
    5.3762   -1.8603    4.6384 H   0  0  0  0  0  0
   -4.2461    3.1813    3.5434 H   0  0  0  0  0  0
    3.2551    1.4562   -1.7325 H   0  0  0  0  0  0
    4.7387    0.8086   -2.4027 H   0  0  0  0  0  0
    4.5939    1.0398   -0.6727 H   0  0  0  0  0  0
    4.1764   -1.0514   -3.4537 H   0  0  0  0  0  0
    2.9427   -2.1725   -2.9256 H   0  0  0  0  0  0
    4.5838   -2.3382   -2.3301 H   0  0  0  0  0  0
   -4.6154    5.1141    5.0358 H   0  0  0  0  0  0
    6.1730   -3.8152    5.9222 H   0  0  0  0  0  0
    2.4880   -3.8863    8.1172 H   0  0  0  0  0  0
   -0.5129    6.2737    4.5665 H   0  0  0  0  0  0
   -2.7511    6.6542    5.5420 H   0  0  0  0  0  0
    4.7276   -4.8222    7.6554 H   0  0  0  0  0  0
  1  2  1  0  0  0
  1  4  1  0  0  0
  1  8  2  0  0  0
  2  7  1  0  0  0
  2 33  1  0  0  0
  3  5  1  0  0  0
  3  9  2  0  0  0
  3 10  1  0  0  0
  4  5  1  0  0  0
  4 11  1  0  0  0
  4 34  1  0  0  0
  5 35  1  0  0  0
  6  7  1  0  0  0
  6 12  2  0  0  0
  6 18  1  0  0  0
  7 13  1  0  0  0
  7 36  1  0  0  0
 10 14  1  0  0  0
 11 20  1  0  0  0
 11 37  1  0  0  0
 11 38  1  0  0  0
 13 15  1  0  0  0
 13 39  1  0  0  0
 13 40  1  0  0  0
 14 17  1  0  0  0
 14 41  1  0  0  0
 14 42  1  0  0  0
 15 16  1  0  0  0
 15 43  1  0  0  0
 15 44  1  0  0  0
 16 22  2  0  0  0
 16 24  1  0  0  0
 17 21  2  0  0  0
 17 23  1  0  0  0
 18 19  1  0  0  0
 18 45  1  0  0  0
 18 46  1  0  0  0
 19 47  1  0  0  0
 20 25  1  0  0  0
 20 26  1  0  0  0
 20 48  1  0  0  0
 21 29  1  0  0  0
 21 49  1  0  0  0
 22 30  1  0  0  0
 22 50  1  0  0  0
 23 28  2  0  0  0
 23 51  1  0  0  0
 24 27  2  0  0  0
 24 52  1  0  0  0
 25 53  1  0  0  0
 25 54  1  0  0  0
 25 55  1  0  0  0
 26 56  1  0  0  0
 26 57  1  0  0  0
 26 58  1  0  0  0
 27 31  1  0  0  0
 27 59  1  0  0  0
 28 32  1  0  0  0
 28 60  1  0  0  0
 29 32  2  0  0  0
 29 61  1  0  0  0
 30 31  2  0  0  0
 30 62  1  0  0  0
 31 63  1  0  0  0
 32 64  1  0  0  0
M  END
> <chembl_id>
CHEMBL97493

> <chembl_pref_name>
None

> <i_m_ct_stereo_status>
1

> <s_m_source_file>
sdf/inactives_sanitized.sdf

> <i_m_source_file_index>
348

> <i_lp_mmshare_version>
49012

> <i_f3d_flags>
0

> <s_epik_input>
W2NIXTFbY0hdW2NIXVtjSF1bY0hdYzFbQ0gyXVtDSDJdW0NAQEhdKEMoPU8pW0NIMl1bT0hdKVtOSF1DKD1PKVtDQEhdKFtDSDJdW0NIXShbQ0gzXSlbQ0gzXSlbTkhdQyg9TylPW0NIMl1jMltjSF1bY0hdW2NIXVtjSF1bY0hdMg==

> <s_epik_cmdline>
J2VwaWtfcHl0aG9uJywgJy1waHQnLCAnMC41JywgJy1waCcsICc3LjUnLCAnLW50JywgJy1tYScsICcyMDAnLCAnLWltYWUnLCAnPGluZmlsZS5tYWU+JywgJy1vbWFlJywgJzxvdXRmaWxlLm1hZT4n

> <r_lp_tautomer_probability>
1

> <r_epik_Ionization_Penalty>
  0.0001

> <r_epik_Ionization_Penalty_Charging>
  0.0000

> <r_epik_Ionization_Penalty_Neutral>
  0.0001

> <r_epik_State_Penalty>
 -0.0000

> <r_epik_Charging_Adjusted_Penalty>
0

> <i_epik_Tot_Q>
0

> <i_epik_Tot_abs_Q>
0

> <s_epik_Chemistry_Notes>
This compound has an ester and may undergo hydrolysis at high or low pH.

> <s_lp_Force_Field>
OPLS3e

> <r_lp_Energy>
38.689506

> <b_lp_Chiralities_Consistent>
1

> <s_lp_Variant>
sdf/inactives_sanitized.sdf:348-1

$$$$
sdf/inactives_sanitized.sdf:349
                    3D
 Schrodinger Suite 2020-1.
 55 56  0  0  1  0            999 V2000
    0.2443   -0.1984    0.0974 N   0  0  0  0  0  0
   -0.7468   -1.1397    0.1270 C   0  0  0  0  0  0
   -0.3727   -2.3953   -0.2036 N   0  0  0  0  0  0
   -1.2237   -3.5916   -0.2584 C   0  0  2  0  0  0
   -1.0858   -4.2483    1.1028 C   0  0  0  0  0  0
   -0.9597   -5.4619    1.2657 O   0  0  0  0  0  0
   -0.8005   -4.5071   -1.4360 C   0  0  0  0  0  0
   -0.9972   -3.8920   -2.8122 C   0  0  0  0  0  0
    0.0191   -3.1042   -3.3950 C   0  0  0  0  0  0
   -0.2094   -2.4577   -4.6027 C   0  0  0  0  0  0
   -1.4452   -2.5607   -5.2290 C   0  0  0  0  0  0
   -2.4680   -3.2997   -4.6476 C   0  0  0  0  0  0
   -2.2602   -3.9514   -3.4390 C   0  0  0  0  0  0
   -1.9213   -0.8752    0.3960 O   0  0  0  0  0  0
   -0.0815    1.2399    0.2687 C   0  0  0  0  0  0
    0.0081    2.0280   -1.0536 C   0  0  0  0  0  0
    0.6796    1.9211    1.4246 C   0  0  0  0  0  0
    1.6622   -0.5093   -0.2183 C   0  0  0  0  0  0
    2.4092   -1.3125    0.8680 C   0  0  0  0  0  0
    2.3616   -0.6164    2.1092 O   0  0  0  0  0  0
    2.9011   -1.3208    3.2247 C   0  0  0  0  0  0
    4.4113   -1.4930    3.1110 C   0  0  0  0  0  0
    5.2290   -0.3702    2.9566 C   0  0  0  0  0  0
    6.6089   -0.5246    2.8517 C   0  0  0  0  0  0
    7.1658   -1.8010    2.9024 C   0  0  0  0  0  0
    6.3560   -2.9242    3.0584 C   0  0  0  0  0  0
    4.9760   -2.7703    3.1640 C   0  0  0  0  0  0
    0.5950   -2.5538   -0.4439 H   0  0  0  0  0  0
   -2.2660   -3.3005   -0.4055 H   0  0  0  0  0  0
   -1.1305   -3.5672    1.9537 H   0  0  0  0  0  0
    0.2500   -4.7889   -1.3389 H   0  0  0  0  0  0
   -1.3672   -5.4396   -1.4078 H   0  0  0  0  0  0
    0.9757   -3.0000   -2.9041 H   0  0  0  0  0  0
    0.5735   -1.8648   -5.0523 H   0  0  0  0  0  0
   -1.6167   -2.0525   -6.1665 H   0  0  0  0  0  0
   -3.4316   -3.3594   -5.1318 H   0  0  0  0  0  0
   -3.0679   -4.5046   -2.9821 H   0  0  0  0  0  0
   -1.1272    1.3286    0.5662 H   0  0  0  0  0  0
   -0.2139    3.0828   -0.8893 H   0  0  0  0  0  0
   -0.7189    1.6644   -1.7806 H   0  0  0  0  0  0
    1.0042    1.9853   -1.4944 H   0  0  0  0  0  0
    0.3859    2.9677    1.5111 H   0  0  0  0  0  0
    1.7590    1.9217    1.2737 H   0  0  0  0  0  0
    0.4537    1.4494    2.3816 H   0  0  0  0  0  0
    1.7495   -0.9864   -1.1953 H   0  0  0  0  0  0
    2.1774    0.4468   -0.3003 H   0  0  0  0  0  0
    1.9669   -2.3026    0.9826 H   0  0  0  0  0  0
    3.4416   -1.4671    0.5518 H   0  0  0  0  0  0
    2.6934   -0.7429    4.1258 H   0  0  0  0  0  0
    2.3909   -2.2773    3.3535 H   0  0  0  0  0  0
    4.7961    0.6190    2.9166 H   0  0  0  0  0  0
    7.2441    0.3408    2.7322 H   0  0  0  0  0  0
    8.2360   -1.9213    2.8209 H   0  0  0  0  0  0
    6.7963   -3.9098    3.0972 H   0  0  0  0  0  0
    4.3503   -3.6429    3.2836 H   0  0  0  0  0  0
  1 15  1  0  0  0
  1 18  1  0  0  0
  1  2  1  0  0  0
  2 14  2  0  0  0
  2  3  1  0  0  0
  3  4  1  0  0  0
  3 28  1  0  0  0
  4  7  1  0  0  0
  4  5  1  0  0  0
  4 29  1  0  0  0
  5  6  2  0  0  0
  5 30  1  0  0  0
  7  8  1  0  0  0
  7 31  1  0  0  0
  7 32  1  0  0  0
  8 13  1  0  0  0
  8  9  2  0  0  0
  9 10  1  0  0  0
  9 33  1  0  0  0
 10 11  2  0  0  0
 10 34  1  0  0  0
 11 12  1  0  0  0
 11 35  1  0  0  0
 12 13  2  0  0  0
 12 36  1  0  0  0
 13 37  1  0  0  0
 15 16  1  0  0  0
 15 17  1  0  0  0
 15 38  1  0  0  0
 16 39  1  0  0  0
 16 40  1  0  0  0
 16 41  1  0  0  0
 17 42  1  0  0  0
 17 43  1  0  0  0
 17 44  1  0  0  0
 18 19  1  0  0  0
 18 45  1  0  0  0
 18 46  1  0  0  0
 19 20  1  0  0  0
 19 47  1  0  0  0
 19 48  1  0  0  0
 20 21  1  0  0  0
 21 22  1  0  0  0
 21 49  1  0  0  0
 21 50  1  0  0  0
 22 23  2  0  0  0
 22 27  1  0  0  0
 23 24  1  0  0  0
 23 51  1  0  0  0
 24 25  2  0  0  0
 24 52  1  0  0  0
 25 26  1  0  0  0
 25 53  1  0  0  0
 26 27  2  0  0  0
 26 54  1  0  0  0
 27 55  1  0  0  0
M  END
> <chembl_id>
CHEMBL378731

> <chembl_pref_name>
None

> <i_m_ct_stereo_status>
1

> <s_m_source_file>
sdf/inactives_sanitized.sdf

> <i_m_source_file_index>
349

> <i_lp_mmshare_version>
49012

> <i_f3d_flags>
0

> <s_epik_input>
W2NIXTFbY0hdW2NIXVtjSF1bY0hdYzFbQ0gyXU9bQ0gyXVtDSDJdTihbQ0hdKFtDSDNdKVtDSDNdKUMoPU8pW05IXVtDQEhdKFtDSF09TylbQ0gyXWMyW2NIXVtjSF1bY0hdW2NIXVtjSF0y

> <s_epik_cmdline>
J2VwaWtfcHl0aG9uJywgJy1waHQnLCAnMC41JywgJy1waCcsICc3LjUnLCAnLW50JywgJy1tYScsICcyMDAnLCAnLWltYWUnLCAnPGluZmlsZS5tYWU+JywgJy1vbWFlJywgJzxvdXRmaWxlLm1hZT4n

> <r_lp_tautomer_probability>
1

> <r_epik_Ionization_Penalty>
  0.0000

> <r_epik_Ionization_Penalty_Charging>
  0.0000

> <r_epik_Ionization_Penalty_Neutral>
  0.0000

> <r_epik_State_Penalty>
 -0.0000

> <r_epik_Charging_Adjusted_Penalty>
0

> <i_epik_Tot_Q>
0

> <i_epik_Tot_abs_Q>
0

> <s_lp_Force_Field>
OPLS3e

> <r_lp_Energy>
41.867288

> <b_lp_Chiralities_Consistent>
1

> <s_lp_Variant>
sdf/inactives_sanitized.sdf:349-1

$$$$
sdf/inactives_sanitized.sdf:350
                    3D
 Schrodinger Suite 2020-1.
 64 67  0  0  1  0            999 V2000
   -0.5047    1.5274    0.1920 C   0  0  0  0  0  0
   -2.0108    1.5456    0.3549 C   0  0  0  0  0  0
   -2.8127    1.7314   -0.6816 N   0  0  0  0  0  0
   -4.1252    1.6983   -0.2450 N   0  0  0  0  0  0
   -4.0778    1.4941    1.0766 N   0  0  0  0  0  0
   -2.7786    1.3863    1.5007 C   0  0  0  0  0  0
   -5.3038    1.3989    1.8684 C   0  0  0  0  0  0
   -5.9962    2.7524    2.1148 C   0  0  0  0  0  0
   -5.4501    3.8065    1.7165 O   0  5  0  0  0  0
   -7.0853    2.7034    2.7269 O   0  0  0  0  0  0
    0.0329    0.1686   -0.3112 C   0  0  2  0  0  0
    5.1724    1.6631    1.5363 C   0  0  0  0  0  0
    4.4488    0.5296    1.6231 N   0  0  0  0  0  0
    5.3400    2.2724    0.4772 O   0  0  0  0  0  0
    3.7826   -0.1582    0.5099 C   0  0  2  0  0  0
    2.2581   -0.1757    0.7420 C   0  0  0  0  0  0
    4.3126   -1.6090    0.3272 C   0  0  0  0  0  0
    5.8298   -1.7079    0.1479 C   0  0  0  0  0  0
    1.8042   -0.4886    1.8446 O   0  0  0  0  0  0
    1.4941    0.1200   -0.3231 N   0  0  0  0  0  0
   -0.4728   -0.2021   -1.6445 C   0  0  0  0  0  0
   -0.8679   -0.4950   -2.6922 N   0  0  0  0  0  0
    6.5483   -2.6876    0.8434 C   0  0  0  0  0  0
    7.9321   -2.7878    0.6972 C   0  0  0  0  0  0
    8.6100   -1.9112   -0.1489 C   0  0  0  0  0  0
    7.9025   -0.9387   -0.8544 C   0  0  0  0  0  0
    6.5181   -0.8417   -0.7122 C   0  0  0  0  0  0
    5.7774    2.1760    2.8263 C   0  0  0  0  0  0
    5.8937    1.3588    3.9605 C   0  0  0  0  0  0
    6.4622    1.8513    5.1317 C   0  0  0  0  0  0
    6.9352    3.1671    5.2049 C   0  0  0  0  0  0
    6.8223    3.9782    4.0692 C   0  0  0  0  0  0
    6.2519    3.4916    2.8964 C   0  0  0  0  0  0
    7.5472    3.6923    6.4636 C   0  0  0  0  0  0
    8.6082    4.6088    6.4165 C   0  0  0  0  0  0
    9.1790    5.1002    7.5876 C   0  0  0  0  0  0
    8.6916    4.6795    8.8211 C   0  0  0  0  0  0
    7.6398    3.7712    8.8914 C   0  0  0  0  0  0
    7.0729    3.2806    7.7180 C   0  0  0  0  0  0
    8.8247    0.2599   -2.0096 Br  0  0  0  0  0  0
   -0.1843    2.3219   -0.4841 H   0  0  0  0  0  0
   -0.0408    1.7672    1.1501 H   0  0  0  0  0  0
   -2.5313    1.2159    2.5377 H   0  0  0  0  0  0
   -5.9889    0.7263    1.3498 H   0  0  0  0  0  0
   -5.0555    0.9450    2.8285 H   0  0  0  0  0  0
   -0.3440   -0.6253    0.3380 H   0  0  0  0  0  0
    4.3327    0.0971    2.5277 H   0  0  0  0  0  0
    3.9688    0.3764   -0.4237 H   0  0  0  0  0  0
    4.0290   -2.2002    1.2012 H   0  0  0  0  0  0
    3.8393   -2.0884   -0.5316 H   0  0  0  0  0  0
    1.9448    0.3922   -1.1849 H   0  0  0  0  0  0
    6.0378   -3.3726    1.5045 H   0  0  0  0  0  0
    8.4794   -3.5435    1.2408 H   0  0  0  0  0  0
    9.6818   -1.9880   -0.2578 H   0  0  0  0  0  0
    5.9878   -0.0850   -1.2707 H   0  0  0  0  0  0
    5.5551    0.3328    3.9510 H   0  0  0  0  0  0
    6.5449    1.1910    5.9826 H   0  0  0  0  0  0
    7.1681    5.0013    4.0890 H   0  0  0  0  0  0
    6.1821    4.1531    2.0444 H   0  0  0  0  0  0
    9.0066    4.9401    5.4687 H   0  0  0  0  0  0
    9.9971    5.8034    7.5387 H   0  0  0  0  0  0
    9.1326    5.0611    9.7301 H   0  0  0  0  0  0
    7.2634    3.4503    9.8516 H   0  0  0  0  0  0
    6.2503    2.5845    7.7929 H   0  0  0  0  0  0
  1  2  1  0  0  0
  1 11  1  0  0  0
  1 41  1  0  0  0
  1 42  1  0  0  0
  2  3  1  0  0  0
  2  6  2  0  0  0
  3  4  2  0  0  0
  4  5  1  0  0  0
  5  6  1  0  0  0
  5  7  1  0  0  0
  6 43  1  0  0  0
  7  8  1  0  0  0
  7 44  1  0  0  0
  7 45  1  0  0  0
  8  9  1  0  0  0
  8 10  2  0  0  0
 11 20  1  0  0  0
 11 21  1  0  0  0
 11 46  1  0  0  0
 12 13  1  0  0  0
 12 14  2  0  0  0
 12 28  1  0  0  0
 13 15  1  0  0  0
 13 47  1  0  0  0
 15 16  1  0  0  0
 15 17  1  0  0  0
 15 48  1  0  0  0
 16 19  2  0  0  0
 16 20  1  0  0  0
 17 18  1  0  0  0
 17 49  1  0  0  0
 17 50  1  0  0  0
 18 23  2  0  0  0
 18 27  1  0  0  0
 20 51  1  0  0  0
 21 22  3  0  0  0
 23 24  1  0  0  0
 23 52  1  0  0  0
 24 25  2  0  0  0
 24 53  1  0  0  0
 25 26  1  0  0  0
 25 54  1  0  0  0
 26 27  2  0  0  0
 26 40  1  0  0  0
 27 55  1  0  0  0
 28 29  2  0  0  0
 28 33  1  0  0  0
 29 30  1  0  0  0
 29 56  1  0  0  0
 30 31  2  0  0  0
 30 57  1  0  0  0
 31 32  1  0  0  0
 31 34  1  0  0  0
 32 33  2  0  0  0
 32 58  1  0  0  0
 33 59  1  0  0  0
 34 35  2  0  0  0
 34 39  1  0  0  0
 35 36  1  0  0  0
 35 60  1  0  0  0
 36 37  2  0  0  0
 36 61  1  0  0  0
 37 38  1  0  0  0
 37 62  1  0  0  0
 38 39  2  0  0  0
 38 63  1  0  0  0
 39 64  1  0  0  0
M  CHG  1   9  -1
M  END
> <chembl_id>
CHEMBL3805560

> <chembl_pref_name>
None

> <i_m_ct_stereo_status>
1

> <s_m_source_file>
sdf/inactives_sanitized.sdf

> <i_m_source_file_index>
350

> <i_lp_mmshare_version>
49012

> <i_f3d_flags>
0

> <s_epik_input>
W09IXUMoPU8pW0NIMl1uKFtjSF0xKW5uYzFbQ0gyXVtDQEBIXShDI04pW05IXUMoPU8pW0NASF0oW0NIMl1jMltjSF1bY0hdW2NIXWMoQnIpW2NIXTIpW05IXUMoPU8pYzNbY0hdW2NIXWMoW2NIXVtjSF0zKS1jNFtjSF1bY0hdW2NIXVtjSF1bY0hdNA==

> <s_epik_cmdline>
J2VwaWtfcHl0aG9uJywgJy1waHQnLCAnMC41JywgJy1waCcsICc3LjUnLCAnLW50JywgJy1tYScsICcyMDAnLCAnLWltYWUnLCAnPGluZmlsZS5tYWU+JywgJy1vbWFlJywgJzxvdXRmaWxlLm1hZT4n

> <r_lp_tautomer_probability>
1

> <r_epik_Ionization_Penalty>
  0.0000

> <r_epik_Ionization_Penalty_Charging>
  0.0000

> <r_epik_Ionization_Penalty_Neutral>
  0.0000

> <r_epik_State_Penalty>
 -0.0000

> <r_epik_Charging_Adjusted_Penalty>
8.41733936262384e-06

> <i_epik_Tot_Q>
-1

> <i_epik_Tot_abs_Q>
1

> <s_lp_Force_Field>
OPLS3e

> <r_lp_Energy>
34.815782

> <b_lp_Chiralities_Consistent>
1

> <s_lp_Variant>
sdf/inactives_sanitized.sdf:350-1

$$$$
sdf/inactives_sanitized.sdf:351
                    3D
 Schrodinger Suite 2020-1.
 49 50  0  0  1  0            999 V2000
   -1.3486    2.0405   -0.7697 C   0  0  0  0  0  0
   -0.5090    1.4342    0.0918 N   0  0  0  0  0  0
   -1.8401    1.4676   -1.7448 O   0  0  0  0  0  0
   -0.0771    0.0319    0.0357 C   0  0  2  0  0  0
   -0.7002   -0.7758    1.1946 C   0  0  0  0  0  0
    1.4733   -0.0357    0.0926 C   0  0  0  0  0  0
    2.2077    0.6386   -1.0920 C   0  0  0  0  0  0
   -0.9256   -0.2395    2.2817 O   0  0  0  0  0  0
   -0.9274   -2.0770    0.9489 N   0  0  0  0  0  0
   -1.5266   -2.9973    1.9106 C   0  0  0  0  0  0
   -2.9246   -2.6616    2.2354 C   0  0  0  0  0  0
   -4.0221   -2.3986    2.4907 N   0  0  0  0  0  0
    1.8259    0.0196   -2.4537 C   0  0  0  0  0  0
    3.7344    0.6500   -0.8620 C   0  0  0  0  0  0
   -1.6472    3.4996   -0.4980 C   0  0  0  0  0  0
   -2.1624    4.3061   -1.5200 C   0  0  0  0  0  0
   -2.4493    5.6483   -1.2872 C   0  0  0  0  0  0
   -2.2350    6.2228   -0.0281 C   0  0  0  0  0  0
   -1.7225    5.4125    0.9928 C   0  0  0  0  0  0
   -1.4330    4.0702    0.7651 C   0  0  0  0  0  0
   -2.5482    7.6640    0.2212 C   0  0  0  0  0  0
   -3.0201    8.0895    1.4721 C   0  0  0  0  0  0
   -3.3119    9.4305    1.7071 C   0  0  0  0  0  0
   -3.1342   10.3629    0.6897 C   0  0  0  0  0  0
   -2.6681    9.9635   -0.5590 C   0  0  0  0  0  0
   -2.3778    8.6215   -0.7900 C   0  0  0  0  0  0
   -0.1494    1.9649    0.8713 H   0  0  0  0  0  0
   -0.4172   -0.4227   -0.8967 H   0  0  0  0  0  0
    1.8165    0.4167    1.0256 H   0  0  0  0  0  0
    1.7938   -1.0784    0.1391 H   0  0  0  0  0  0
    1.8985    1.6843   -1.1176 H   0  0  0  0  0  0
   -0.7378   -2.4424    0.0269 H   0  0  0  0  0  0
   -1.5112   -4.0040    1.4934 H   0  0  0  0  0  0
   -0.9462   -3.0243    2.8343 H   0  0  0  0  0  0
    2.6850   -0.1181   -3.1105 H   0  0  0  0  0  0
    1.1231    0.6641   -2.9832 H   0  0  0  0  0  0
    1.3522   -0.9556   -2.3406 H   0  0  0  0  0  0
    4.0024    0.2737    0.1258 H   0  0  0  0  0  0
    4.1287    1.6639   -0.9357 H   0  0  0  0  0  0
    4.2746    0.0390   -1.5854 H   0  0  0  0  0  0
   -2.3462    3.9023   -2.5056 H   0  0  0  0  0  0
   -2.8544    6.2365   -2.0975 H   0  0  0  0  0  0
   -1.5352    5.8201    1.9753 H   0  0  0  0  0  0
   -1.0458    3.4846    1.5868 H   0  0  0  0  0  0
   -3.1756    7.3801    2.2717 H   0  0  0  0  0  0
   -3.6767    9.7453    2.6738 H   0  0  0  0  0  0
   -3.3601   11.4035    0.8704 H   0  0  0  0  0  0
   -2.5303   10.6917   -1.3448 H   0  0  0  0  0  0
   -2.0071    8.3339   -1.7630 H   0  0  0  0  0  0
  1  2  1  0  0  0
  1  3  2  0  0  0
  1 15  1  0  0  0
  2  4  1  0  0  0
  2 27  1  0  0  0
  4  5  1  0  0  0
  4  6  1  0  0  0
  4 28  1  0  0  0
  5  8  2  0  0  0
  5  9  1  0  0  0
  6  7  1  0  0  0
  6 29  1  0  0  0
  6 30  1  0  0  0
  7 13  1  0  0  0
  7 14  1  0  0  0
  7 31  1  0  0  0
  9 10  1  0  0  0
  9 32  1  0  0  0
 10 11  1  0  0  0
 10 33  1  0  0  0
 10 34  1  0  0  0
 11 12  3  0  0  0
 13 35  1  0  0  0
 13 36  1  0  0  0
 13 37  1  0  0  0
 14 38  1  0  0  0
 14 39  1  0  0  0
 14 40  1  0  0  0
 15 16  2  0  0  0
 15 20  1  0  0  0
 16 17  1  0  0  0
 16 41  1  0  0  0
 17 18  2  0  0  0
 17 42  1  0  0  0
 18 19  1  0  0  0
 18 21  1  0  0  0
 19 20  2  0  0  0
 19 43  1  0  0  0
 20 44  1  0  0  0
 21 22  2  0  0  0
 21 26  1  0  0  0
 22 23  1  0  0  0
 22 45  1  0  0  0
 23 24  2  0  0  0
 23 46  1  0  0  0
 24 25  1  0  0  0
 24 47  1  0  0  0
 25 26  2  0  0  0
 25 48  1  0  0  0
 26 49  1  0  0  0
M  END
> <chembl_id>
CHEMBL3805868

> <chembl_pref_name>
None

> <i_m_ct_stereo_status>
1

> <s_m_source_file>
sdf/inactives_sanitized.sdf

> <i_m_source_file_index>
351

> <i_lp_mmshare_version>
49012

> <i_f3d_flags>
0

> <s_epik_input>
TiNDW0NIMl1bTkhdQyg9TylbQ0BIXShbQ0gyXVtDSF0oW0NIM10pW0NIM10pW05IXUMoPU8pYzFbY0hdW2NIXWMoW2NIXVtjSF0xKS1jMltjSF1bY0hdW2NIXVtjSF1bY0hdMg==

> <s_epik_cmdline>
J2VwaWtfcHl0aG9uJywgJy1waHQnLCAnMC41JywgJy1waCcsICc3LjUnLCAnLW50JywgJy1tYScsICcyMDAnLCAnLWltYWUnLCAnPGluZmlsZS5tYWU+JywgJy1vbWFlJywgJzxvdXRmaWxlLm1hZT4n

> <r_lp_tautomer_probability>
1

> <r_epik_Ionization_Penalty>
  0.0000

> <r_epik_Ionization_Penalty_Charging>
  0.0000

> <r_epik_Ionization_Penalty_Neutral>
  0.0000

> <r_epik_State_Penalty>
 -0.0000

> <r_epik_Charging_Adjusted_Penalty>
0

> <i_epik_Tot_Q>
0

> <i_epik_Tot_abs_Q>
0

> <s_lp_Force_Field>
OPLS3e

> <r_lp_Energy>
25.47683

> <b_lp_Chiralities_Consistent>
1

> <s_lp_Variant>
sdf/inactives_sanitized.sdf:351-1

$$$$
sdf/inactives_sanitized.sdf:352
                    3D
 Schrodinger Suite 2020-1.
 32 34  0  0  1  0            999 V2000
    0.1417   -0.1244    0.4406 N   0  0  0  0  0  0
    1.5469   -0.1911    0.2713 C   0  0  0  0  0  0
    2.3583    0.1084    1.3708 C   0  0  0  0  0  0
    3.7380    0.1200    1.2963 C   0  0  0  0  0  0
    4.4115   -0.1883    0.1187 C   0  0  0  0  0  0
    2.2039   -0.5577   -0.9645 C   0  0  0  0  0  0
    3.6435   -0.5158   -1.0495 C   0  0  0  0  0  0
    4.2582   -0.7882   -2.3094 C   0  0  0  0  0  0
    3.5099   -1.1604   -3.4165 C   0  0  0  0  0  0
    2.1357   -1.2788   -3.3193 C   0  0  0  0  0  0
    1.4897   -0.9887   -2.1254 C   0  0  0  0  0  0
   -0.5407    0.0516    1.7318 C   0  0  0  0  0  0
   -2.0247    0.2591    1.4675 C   0  0  0  0  0  0
   -1.9716    1.0383    0.1757 C   0  0  0  0  0  0
   -0.8246    0.3488   -0.5636 C   0  0  0  0  0  0
    5.8946   -0.1855    0.1481 N   0  3  0  0  0  0
    6.5043   -1.0703   -0.4434 O   0  0  0  0  0  0
    6.4544    0.6755    0.8210 O   0  5  0  0  0  0
    1.9305    0.3638    2.3279 H   0  0  0  0  0  0
    4.2955    0.3630    2.1895 H   0  0  0  0  0  0
    5.3250   -0.7058   -2.4366 H   0  0  0  0  0  0
    4.0032   -1.3710   -4.3541 H   0  0  0  0  0  0
    1.5619   -1.5933   -4.1787 H   0  0  0  0  0  0
    0.4238   -1.1190   -2.1076 H   0  0  0  0  0  0
   -0.3575   -0.8240    2.3560 H   0  0  0  0  0  0
   -0.1454    0.9206    2.2600 H   0  0  0  0  0  0
   -2.5436   -0.6956    1.3651 H   0  0  0  0  0  0
   -2.5131    0.8141    2.2691 H   0  0  0  0  0  0
   -2.9103    0.9831   -0.3772 H   0  0  0  0  0  0
   -1.7539    2.0958    0.3384 H   0  0  0  0  0  0
   -1.2795   -0.4783   -1.1097 H   0  0  0  0  0  0
   -0.3717    1.1053   -1.2066 H   0  0  0  0  0  0
  1 12  1  0  0  0
  1  2  1  0  0  0
  1 15  1  0  0  0
  2  6  2  0  0  0
  2  3  1  0  0  0
  3  4  2  0  0  0
  3 19  1  0  0  0
  4  5  1  0  0  0
  4 20  1  0  0  0
  5  7  2  0  0  0
  5 16  1  0  0  0
  6 11  1  0  0  0
  6  7  1  0  0  0
  7  8  1  0  0  0
  8  9  2  0  0  0
  8 21  1  0  0  0
  9 10  1  0  0  0
  9 22  1  0  0  0
 10 11  2  0  0  0
 10 23  1  0  0  0
 11 24  1  0  0  0
 12 13  1  0  0  0
 12 25  1  0  0  0
 12 26  1  0  0  0
 13 14  1  0  0  0
 13 27  1  0  0  0
 13 28  1  0  0  0
 14 15  1  0  0  0
 14 29  1  0  0  0
 14 30  1  0  0  0
 15 31  1  0  0  0
 15 32  1  0  0  0
 16 17  2  0  0  0
 16 18  1  0  0  0
M  CHG  2  16   1  18  -1
M  END
> <chembl_id>
CHEMBL570897

> <chembl_pref_name>
None

> <s_m_source_file>
sdf/inactives_sanitized.sdf

> <i_m_source_file_index>
352

> <i_lp_mmshare_version>
49012

> <i_m_ct_stereo_status>
1

> <i_f3d_flags>
0

> <s_epik_input>
W0NIMl0xW0NIMl1bQ0gyXVtDSDJdTjFjMltjSF1bY0hdYyhbTitdKD1PKVtPLV0pYyhjMjMpW2NIXVtjSF1bY0hdW2NIXTM=

> <s_epik_cmdline>
J2VwaWtfcHl0aG9uJywgJy1waHQnLCAnMC41JywgJy1waCcsICc3LjUnLCAnLW50JywgJy1tYScsICcyMDAnLCAnLWltYWUnLCAnPGluZmlsZS5tYWU+JywgJy1vbWFlJywgJzxvdXRmaWxlLm1hZT4n

> <r_lp_tautomer_probability>
1

> <r_epik_Ionization_Penalty>
  0.0000

> <r_epik_Ionization_Penalty_Charging>
  0.0000

> <r_epik_Ionization_Penalty_Neutral>
  0.0000

> <r_epik_State_Penalty>
 -0.0000

> <r_epik_Charging_Adjusted_Penalty>
0

> <i_epik_Tot_Q>
0

> <i_epik_Tot_abs_Q>
2

> <s_lp_Force_Field>
OPLS3e

> <r_lp_Energy>
32.136566

> <b_lp_Chiralities_Consistent>
1

> <s_lp_Variant>
sdf/inactives_sanitized.sdf:352-1

$$$$
sdf/inactives_sanitized.sdf:353
                    3D
 Schrodinger Suite 2020-1.
 50 52  0  0  1  0            999 V2000
   -0.6691    0.9877    0.1318 C   0  0  0  0  0  0
    0.1747   -0.0600    0.0634 N   0  0  0  0  0  0
   -0.2862    2.1540    0.2490 O   0  0  0  0  0  0
    1.6381    0.0031    0.1501 C   0  0  2  0  0  0
    2.2710   -0.6235   -1.1068 C   0  0  0  0  0  0
    3.2524    0.0821   -1.6926 N   0  0  0  0  0  0
    1.8995   -1.7320   -1.4964 O   0  0  0  0  0  0
    3.9505   -0.3393   -2.9030 C   0  0  0  0  0  0
    3.0744   -0.3789   -4.0876 C   0  0  0  0  0  0
    2.3871   -0.4098   -5.0180 N   0  0  0  0  0  0
    2.1188   -0.7190    1.4352 C   0  0  0  0  0  0
    1.6159   -0.1177    2.7384 C   0  0  0  0  0  0
    2.2433    1.0241    3.2798 C   0  0  0  0  0  0
    1.7190    1.6337    4.4120 C   0  0  0  0  0  0
    0.5609    1.1405    4.9999 C   0  0  0  0  0  0
   -0.0904    0.0409    4.4549 C   0  0  0  0  0  0
    0.4183   -0.5829    3.3236 C   0  0  0  0  0  0
   -2.1450    0.6639    0.0454 C   0  0  0  0  0  0
   -2.6313   -0.6204    0.3294 C   0  0  0  0  0  0
   -3.9946   -0.8912    0.2592 C   0  0  0  0  0  0
   -4.9110    0.1077   -0.0929 C   0  0  0  0  0  0
   -4.4204    1.3890   -0.3749 C   0  0  0  0  0  0
   -3.0579    1.6655   -0.3052 C   0  0  0  0  0  0
   -6.3762   -0.1856   -0.1619 C   0  0  0  0  0  0
   -7.1942    0.4587   -1.1021 C   0  0  0  0  0  0
   -8.5584    0.1870   -1.1670 C   0  0  0  0  0  0
   -9.1202   -0.7343   -0.2887 C   0  0  0  0  0  0
   -8.3283   -1.3851    0.6521 C   0  0  0  0  0  0
   -6.9645   -1.1113    0.7131 C   0  0  0  0  0  0
   -0.2098   -0.9846   -0.0645 H   0  0  0  0  0  0
    1.9649    1.0431    0.2227 H   0  0  0  0  0  0
    3.4879    0.9930   -1.3258 H   0  0  0  0  0  0
    4.7590    0.3627   -3.1069 H   0  0  0  0  0  0
    4.4057   -1.3217   -2.7666 H   0  0  0  0  0  0
    1.8219   -1.7697    1.4134 H   0  0  0  0  0  0
    3.2098   -0.7198    1.4718 H   0  0  0  0  0  0
    3.1313    1.4277    2.8156 H   0  0  0  0  0  0
    2.2078    2.5007    4.8314 H   0  0  0  0  0  0
    0.1571    1.6230    5.8777 H   0  0  0  0  0  0
   -1.0007   -0.3242    4.9071 H   0  0  0  0  0  0
   -0.1074   -1.4226    2.8930 H   0  0  0  0  0  0
   -1.9649   -1.4224    0.6131 H   0  0  0  0  0  0
   -4.3318   -1.8942    0.4756 H   0  0  0  0  0  0
   -5.0952    2.1898   -0.6391 H   0  0  0  0  0  0
   -2.7222    2.6689   -0.5265 H   0  0  0  0  0  0
   -6.7763    1.1696   -1.7997 H   0  0  0  0  0  0
   -9.1772    0.6874   -1.8972 H   0  0  0  0  0  0
  -10.1783   -0.9461   -0.3375 H   0  0  0  0  0  0
   -8.7699   -2.0980    1.3328 H   0  0  0  0  0  0
   -6.3697   -1.6194    1.4578 H   0  0  0  0  0  0
  1  3  2  0  0  0
  1 18  1  0  0  0
  1  2  1  0  0  0
  2  4  1  0  0  0
  2 30  1  0  0  0
  4  5  1  0  0  0
  4 11  1  0  0  0
  4 31  1  0  0  0
  5  6  1  0  0  0
  5  7  2  0  0  0
  6  8  1  0  0  0
  6 32  1  0  0  0
  8  9  1  0  0  0
  8 33  1  0  0  0
  8 34  1  0  0  0
  9 10  3  0  0  0
 11 12  1  0  0  0
 11 35  1  0  0  0
 11 36  1  0  0  0
 12 13  2  0  0  0
 12 17  1  0  0  0
 13 14  1  0  0  0
 13 37  1  0  0  0
 14 15  2  0  0  0
 14 38  1  0  0  0
 15 16  1  0  0  0
 15 39  1  0  0  0
 16 17  2  0  0  0
 16 40  1  0  0  0
 17 41  1  0  0  0
 18 19  2  0  0  0
 18 23  1  0  0  0
 19 20  1  0  0  0
 19 42  1  0  0  0
 20 21  2  0  0  0
 20 43  1  0  0  0
 21 22  1  0  0  0
 21 24  1  0  0  0
 22 23  2  0  0  0
 22 44  1  0  0  0
 23 45  1  0  0  0
 24 25  2  0  0  0
 24 29  1  0  0  0
 25 26  1  0  0  0
 25 46  1  0  0  0
 26 27  2  0  0  0
 26 47  1  0  0  0
 27 28  1  0  0  0
 27 48  1  0  0  0
 28 29  2  0  0  0
 28 49  1  0  0  0
 29 50  1  0  0  0
M  END
> <chembl_id>
CHEMBL200235

> <chembl_pref_name>
None

> <i_m_ct_stereo_status>
1

> <s_m_source_file>
sdf/inactives_sanitized.sdf

> <i_m_source_file_index>
353

> <i_lp_mmshare_version>
49012

> <i_f3d_flags>
0

> <s_epik_input>
W2NIXTFbY0hdW2NIXVtjSF1bY0hdYzFbQ0gyXVtDQEBIXShDKD1PKVtOSF1bQ0gyXUMjTilbTkhdQyg9TyljMltjSF1bY0hdYyhbY0hdW2NIXTIpLWMzW2NIXVtjSF1bY0hdW2NIXVtjSF0z

> <s_epik_cmdline>
J2VwaWtfcHl0aG9uJywgJy1waHQnLCAnMC41JywgJy1waCcsICc3LjUnLCAnLW50JywgJy1tYScsICcyMDAnLCAnLWltYWUnLCAnPGluZmlsZS5tYWU+JywgJy1vbWFlJywgJzxvdXRmaWxlLm1hZT4n

> <r_lp_tautomer_probability>
1

> <r_epik_Ionization_Penalty>
  0.0000

> <r_epik_Ionization_Penalty_Charging>
  0.0000

> <r_epik_Ionization_Penalty_Neutral>
  0.0000

> <r_epik_State_Penalty>
 -0.0000

> <r_epik_Charging_Adjusted_Penalty>
0

> <i_epik_Tot_Q>
0

> <i_epik_Tot_abs_Q>
0

> <s_lp_Force_Field>
OPLS3e

> <r_lp_Energy>
35.331356

> <b_lp_Chiralities_Consistent>
1

> <s_lp_Variant>
sdf/inactives_sanitized.sdf:353-1

$$$$
sdf/inactives_sanitized.sdf:354
                    3D
 Schrodinger Suite 2020-1.
 45 45  0  0  1  0            999 V2000
    3.5155    1.9810    1.2174 O   0  0  0  0  0  0
    2.1997    1.3857    1.4724 S   0  0  0  0  0  0
    1.2431    2.0822    2.3390 O   0  0  0  0  0  0
   -0.0426    0.4682   -0.1104 C   0  0  2  0  0  0
   -1.1330    1.5583   -0.0060 C   0  0  0  0  0  0
   -1.7087    1.7102    1.1977 N   0  0  0  0  0  0
   -1.4022    2.2525   -0.9878 O   0  0  0  0  0  0
   -2.6814    2.7510    1.5114 C   0  0  0  0  0  0
   -2.1000    4.1048    1.4736 C   0  0  0  0  0  0
   -1.6434    5.1677    1.4443 N   0  0  0  0  0  0
    1.3720    1.0949   -0.2059 C   0  0  0  0  0  0
   -0.2920   -0.4412   -1.2344 N   0  0  0  0  0  0
   -1.3046   -1.3267   -1.3321 C   0  0  0  0  0  0
   -1.3644   -2.1542   -2.6013 C   0  0  0  0  0  0
    2.4714   -0.3630    2.1570 C   0  0  0  0  0  0
    3.4183   -0.3723    3.3781 C   0  0  0  0  0  0
   -2.1395   -1.4814   -0.4373 O   0  0  0  0  0  0
   -2.2989   -3.1964   -2.7067 C   0  0  0  0  0  0
   -2.3728   -3.9698   -3.8621 C   0  0  0  0  0  0
   -1.5131   -3.7082   -4.9244 C   0  0  0  0  0  0
   -0.5815   -2.6780   -4.8420 C   0  0  0  0  0  0
   -0.5070   -1.9035   -3.6873 C   0  0  0  0  0  0
    3.8378   -1.8098    3.7327 C   0  0  0  0  0  0
    2.8287    0.3497    4.6044 C   0  0  0  0  0  0
   -0.0687   -0.1524    0.7869 H   0  0  0  0  0  0
   -1.4017    1.1296    1.9647 H   0  0  0  0  0  0
   -3.5308    2.7094    0.8277 H   0  0  0  0  0  0
   -3.0698    2.5805    2.5155 H   0  0  0  0  0  0
    1.3675    2.0490   -0.7359 H   0  0  0  0  0  0
    2.0518    0.4533   -0.7677 H   0  0  0  0  0  0
    0.3519   -0.3596   -2.0071 H   0  0  0  0  0  0
    1.4976   -0.7885    2.3987 H   0  0  0  0  0  0
    2.8886   -0.9526    1.3404 H   0  0  0  0  0  0
    4.3270    0.1620    3.0964 H   0  0  0  0  0  0
   -2.9774   -3.4194   -1.8954 H   0  0  0  0  0  0
   -3.0949   -4.7699   -3.9337 H   0  0  0  0  0  0
   -1.5705   -4.3085   -5.8206 H   0  0  0  0  0  0
    0.0811   -2.4794   -5.6716 H   0  0  0  0  0  0
    0.2250   -1.1095   -3.6566 H   0  0  0  0  0  0
    2.9800   -2.4135    4.0318 H   0  0  0  0  0  0
    4.5543   -1.8219    4.5550 H   0  0  0  0  0  0
    4.3121   -2.3052    2.8847 H   0  0  0  0  0  0
    1.8774   -0.0897    4.9074 H   0  0  0  0  0  0
    2.6605    1.4084    4.4093 H   0  0  0  0  0  0
    3.5052    0.2926    5.4580 H   0  0  0  0  0  0
  1  2  2  0  0  0
  2 11  1  0  0  0
  2 15  1  0  0  0
  2  3  2  0  0  0
  4  5  1  0  0  0
  4 11  1  0  0  0
  4 12  1  0  0  0
  4 25  1  0  0  0
  5  6  1  0  0  0
  5  7  2  0  0  0
  6  8  1  0  0  0
  6 26  1  0  0  0
  8  9  1  0  0  0
  8 27  1  0  0  0
  8 28  1  0  0  0
  9 10  3  0  0  0
 11 29  1  0  0  0
 11 30  1  0  0  0
 12 13  1  0  0  0
 12 31  1  0  0  0
 13 14  1  0  0  0
 13 17  2  0  0  0
 14 18  2  0  0  0
 14 22  1  0  0  0
 15 16  1  0  0  0
 15 32  1  0  0  0
 15 33  1  0  0  0
 16 23  1  0  0  0
 16 24  1  0  0  0
 16 34  1  0  0  0
 18 19  1  0  0  0
 18 35  1  0  0  0
 19 20  2  0  0  0
 19 36  1  0  0  0
 20 21  1  0  0  0
 20 37  1  0  0  0
 21 22  2  0  0  0
 21 38  1  0  0  0
 22 39  1  0  0  0
 23 40  1  0  0  0
 23 41  1  0  0  0
 23 42  1  0  0  0
 24 43  1  0  0  0
 24 44  1  0  0  0
 24 45  1  0  0  0
M  END
> <chembl_id>
CHEMBL2153162

> <chembl_pref_name>
None

> <s_m_source_file>
sdf/inactives_sanitized.sdf

> <i_m_source_file_index>
354

> <i_lp_mmshare_version>
49012

> <i_m_ct_stereo_status>
1

> <i_f3d_flags>
0

> <s_epik_input>
TiNDW0NIMl1bTkhdQyg9TylbQ0BIXShbQ0gyXVMoPU8pKD1PKVtDSDJdW0NIXShbQ0gzXSlbQ0gzXSlbTkhdQyg9TyljMVtjSF1bY0hdW2NIXVtjSF1bY0hdMQ==

> <s_epik_cmdline>
J2VwaWtfcHl0aG9uJywgJy1waHQnLCAnMC41JywgJy1waCcsICc3LjUnLCAnLW50JywgJy1tYScsICcyMDAnLCAnLWltYWUnLCAnPGluZmlsZS5tYWU+JywgJy1vbWFlJywgJzxvdXRmaWxlLm1hZT4n

> <r_lp_tautomer_probability>
1

> <r_epik_Ionization_Penalty>
  0.0001

> <r_epik_Ionization_Penalty_Charging>
  0.0000

> <r_epik_Ionization_Penalty_Neutral>
  0.0001

> <r_epik_State_Penalty>
 -0.0000

> <r_epik_Charging_Adjusted_Penalty>
0

> <i_epik_Tot_Q>
0

> <i_epik_Tot_abs_Q>
0

> <s_lp_Force_Field>
OPLS3e

> <r_lp_Energy>
8.330396

> <b_lp_Chiralities_Consistent>
1

> <s_lp_Variant>
sdf/inactives_sanitized.sdf:354-1

$$$$
sdf/inactives_sanitized.sdf:355
                    3D
 Schrodinger Suite 2020-1.
 53 54  0  0  1  0            999 V2000
   -1.5484    3.2147   -0.5667 O   0  0  0  0  0  0
   -1.3928    1.8771   -0.7542 C   0  0  0  0  0  0
   -0.3404    1.4448    0.0422 N   0  0  0  0  0  0
   -2.0657    1.1800   -1.5161 O   0  0  0  0  0  0
    0.1347    0.0528    0.0095 C   0  0  2  0  0  0
   -0.5964   -0.7922    1.0722 C   0  0  0  0  0  0
   -1.3064   -1.8401    0.6227 N   0  0  0  0  0  0
   -0.4851   -0.5002    2.2638 O   0  0  0  0  0  0
   -2.1125   -2.7043    1.4787 C   0  0  0  0  0  0
   -3.2701   -2.0056    2.0652 C   0  0  0  0  0  0
   -4.1792   -1.4571    2.5252 N   0  0  0  0  0  0
   -2.4889    4.0523   -1.2634 C   0  0  0  0  0  0
   -3.9483    3.6355   -0.9563 C   0  0  0  0  0  0
   -2.2212    4.0560   -2.7894 C   0  0  0  0  0  0
   -2.2295    5.4647   -0.7006 C   0  0  0  0  0  0
    1.6807   -0.0576    0.1251 C   0  0  0  0  0  0
    2.4219    0.5853   -1.0484 C   0  0  0  0  0  0
    3.1005   -0.2132   -1.9726 C   0  0  0  0  0  0
    3.7573    0.3700   -3.0539 C   0  0  0  0  0  0
    3.7351    1.7542   -3.2213 C   0  0  0  0  0  0
    3.0654    2.5815   -2.3078 C   0  0  0  0  0  0
    2.4303    1.9749   -1.2146 C   0  0  0  0  0  0
    3.0140    4.0633   -2.4956 C   0  0  0  0  0  0
    1.8745    4.7911   -2.1202 C   0  0  0  0  0  0
    1.8185    6.1706   -2.2983 C   0  0  0  0  0  0
    2.9057    6.8378   -2.8540 C   0  0  0  0  0  0
    4.0461    6.1357   -3.2328 C   0  0  0  0  0  0
    4.0976    4.7556   -3.0553 C   0  0  0  0  0  0
    0.1160    2.0981    0.6615 H   0  0  0  0  0  0
   -0.0906   -0.3721   -0.9734 H   0  0  0  0  0  0
   -1.3658   -2.0014   -0.3725 H   0  0  0  0  0  0
   -2.4878   -3.5388    0.8865 H   0  0  0  0  0  0
   -1.5096   -3.1283    2.2836 H   0  0  0  0  0  0
   -4.6610    4.3501   -1.3696 H   0  0  0  0  0  0
   -4.1254    3.5804    0.1185 H   0  0  0  0  0  0
   -4.1953    2.6592   -1.3730 H   0  0  0  0  0  0
   -2.4280    3.0888   -3.2471 H   0  0  0  0  0  0
   -1.1810    4.2998   -3.0090 H   0  0  0  0  0  0
   -2.8441    4.7916   -3.2997 H   0  0  0  0  0  0
   -2.8853    6.2068   -1.1577 H   0  0  0  0  0  0
   -1.2012    5.7829   -0.8784 H   0  0  0  0  0  0
   -2.3934    5.5022    0.3774 H   0  0  0  0  0  0
    2.0362    0.4021    1.0491 H   0  0  0  0  0  0
    1.9812   -1.1048    0.2006 H   0  0  0  0  0  0
    3.1135   -1.2879   -1.8622 H   0  0  0  0  0  0
    4.2748   -0.2515   -3.7700 H   0  0  0  0  0  0
    4.2330    2.1785   -4.0807 H   0  0  0  0  0  0
    1.9341    2.5936   -0.4821 H   0  0  0  0  0  0
    1.0159    4.2900   -1.6974 H   0  0  0  0  0  0
    0.9344    6.7195   -2.0088 H   0  0  0  0  0  0
    2.8643    7.9082   -2.9925 H   0  0  0  0  0  0
    4.8879    6.6592   -3.6616 H   0  0  0  0  0  0
    4.9942    4.2291   -3.3483 H   0  0  0  0  0  0
  1 12  1  0  0  0
  1  2  1  0  0  0
  2  4  2  0  0  0
  2  3  1  0  0  0
  3  5  1  0  0  0
  3 29  1  0  0  0
  5 16  1  0  0  0
  5  6  1  0  0  0
  5 30  1  0  0  0
  6  8  2  0  0  0
  6  7  1  0  0  0
  7  9  1  0  0  0
  7 31  1  0  0  0
  9 10  1  0  0  0
  9 32  1  0  0  0
  9 33  1  0  0  0
 10 11  3  0  0  0
 12 15  1  0  0  0
 12 13  1  0  0  0
 12 14  1  0  0  0
 13 34  1  0  0  0
 13 35  1  0  0  0
 13 36  1  0  0  0
 14 37  1  0  0  0
 14 38  1  0  0  0
 14 39  1  0  0  0
 15 40  1  0  0  0
 15 41  1  0  0  0
 15 42  1  0  0  0
 16 17  1  0  0  0
 16 43  1  0  0  0
 16 44  1  0  0  0
 17 18  2  0  0  0
 17 22  1  0  0  0
 18 19  1  0  0  0
 18 45  1  0  0  0
 19 20  2  0  0  0
 19 46  1  0  0  0
 20 21  1  0  0  0
 20 47  1  0  0  0
 21 22  2  0  0  0
 21 23  1  0  0  0
 22 48  1  0  0  0
 23 24  2  0  0  0
 23 28  1  0  0  0
 24 25  1  0  0  0
 24 49  1  0  0  0
 25 26  2  0  0  0
 25 50  1  0  0  0
 26 27  1  0  0  0
 26 51  1  0  0  0
 27 28  2  0  0  0
 27 52  1  0  0  0
 28 53  1  0  0  0
M  END
> <chembl_id>
CHEMBL380560

> <chembl_pref_name>
None

> <i_m_ct_stereo_status>
1

> <s_m_source_file>
sdf/inactives_sanitized.sdf

> <i_m_source_file_index>
355

> <i_lp_mmshare_version>
49012

> <i_f3d_flags>
0

> <s_epik_input>
TiNDW0NIMl1bTkhdQyg9TylbQ0BASF0oW05IXUMoPU8pT0MoW0NIM10pKFtDSDNdKVtDSDNdKVtDSDJdYzFbY0hdW2NIXVtjSF1jKFtjSF0xKS1jMltjSF1bY0hdW2NIXVtjSF1bY0hdMg==

> <s_epik_cmdline>
J2VwaWtfcHl0aG9uJywgJy1waHQnLCAnMC41JywgJy1waCcsICc3LjUnLCAnLW50JywgJy1tYScsICcyMDAnLCAnLWltYWUnLCAnPGluZmlsZS5tYWU+JywgJy1vbWFlJywgJzxvdXRmaWxlLm1hZT4n

> <r_lp_tautomer_probability>
1

> <r_epik_Ionization_Penalty>
  0.0000

> <r_epik_Ionization_Penalty_Charging>
  0.0000

> <r_epik_Ionization_Penalty_Neutral>
  0.0000

> <r_epik_State_Penalty>
 -0.0000

> <r_epik_Charging_Adjusted_Penalty>
0

> <i_epik_Tot_Q>
0

> <i_epik_Tot_abs_Q>
0

> <s_epik_Chemistry_Notes>
This compound has an ester and may undergo hydrolysis at high or low pH.

> <s_lp_Force_Field>
OPLS3e

> <r_lp_Energy>
26.606245

> <b_lp_Chiralities_Consistent>
1

> <s_lp_Variant>
sdf/inactives_sanitized.sdf:355-1

$$$$
sdf/inactives_sanitized.sdf:356
                    3D
 Schrodinger Suite 2020-1.
 42 41  0  0  1  0            999 V2000
   -1.5585    3.2344   -1.0791 O   0  0  0  0  0  0
   -1.4437    1.8798   -1.0382 C   0  0  0  0  0  0
   -0.2676    1.5555   -0.3716 N   0  0  0  0  0  0
   -2.2520    1.0810   -1.5159 O   0  0  0  0  0  0
    0.1086    0.1525   -0.1224 C   0  0  2  0  0  0
   -0.7292   -0.5078    0.9999 C   0  0  0  0  0  0
   -0.9348   -1.8299    0.8819 N   0  0  0  0  0  0
   -1.1382    0.1647    1.9481 O   0  0  0  0  0  0
   -1.7315   -2.6175    1.8172 C   0  0  0  0  0  0
   -3.1602   -2.2563    1.7990 C   0  0  0  0  0  0
   -4.2821   -1.9734    1.7846 N   0  0  0  0  0  0
   -2.6468    3.9615   -1.6796 C   0  0  0  0  0  0
   -3.9892    3.6512   -0.9719 C   0  0  0  0  0  0
   -2.7442    3.6825   -3.2004 C   0  0  0  0  0  0
   -2.2842    5.4444   -1.4571 C   0  0  0  0  0  0
    1.6216    0.0854    0.2233 C   0  0  0  0  0  0
    2.5806    0.5856   -0.8852 C   0  0  0  0  0  0
    2.4317   -0.2066   -2.2019 C   0  0  0  0  0  0
    4.0405    0.6114   -0.3834 C   0  0  0  0  0  0
    0.2772    2.2884    0.0585 H   0  0  0  0  0  0
   -0.0508   -0.4171   -1.0411 H   0  0  0  0  0  0
   -0.5865   -2.3096    0.0644 H   0  0  0  0  0  0
   -1.3532   -2.5124    2.8355 H   0  0  0  0  0  0
   -1.6482   -3.6714    1.5525 H   0  0  0  0  0  0
   -4.7883    4.2992   -1.3339 H   0  0  0  0  0  0
   -3.9111    3.7981    0.1061 H   0  0  0  0  0  0
   -4.3129    2.6229   -1.1331 H   0  0  0  0  0  0
   -3.0440    2.6567   -3.4141 H   0  0  0  0  0  0
   -1.7861    3.8474   -3.6948 H   0  0  0  0  0  0
   -3.4757    4.3355   -3.6779 H   0  0  0  0  0  0
   -3.0386    6.1103   -1.8778 H   0  0  0  0  0  0
   -1.3294    5.6967   -1.9213 H   0  0  0  0  0  0
   -2.1950    5.6794   -0.3951 H   0  0  0  0  0  0
    1.8035    0.6605    1.1339 H   0  0  0  0  0  0
    1.8973   -0.9424    0.4683 H   0  0  0  0  0  0
    2.3189    1.6217   -1.1033 H   0  0  0  0  0  0
    3.3904   -0.4286   -2.6707 H   0  0  0  0  0  0
    1.8502    0.3635   -2.9273 H   0  0  0  0  0  0
    1.9226   -1.1588   -2.0514 H   0  0  0  0  0  0
    4.6749   -0.1110   -0.8970 H   0  0  0  0  0  0
    4.1115    0.3879    0.6814 H   0  0  0  0  0  0
    4.4839    1.5963   -0.5336 H   0  0  0  0  0  0
  1 12  1  0  0  0
  1  2  1  0  0  0
  2  3  1  0  0  0
  2  4  2  0  0  0
  3  5  1  0  0  0
  3 20  1  0  0  0
  5  6  1  0  0  0
  5 16  1  0  0  0
  5 21  1  0  0  0
  6  7  1  0  0  0
  6  8  2  0  0  0
  7  9  1  0  0  0
  7 22  1  0  0  0
  9 10  1  0  0  0
  9 23  1  0  0  0
  9 24  1  0  0  0
 10 11  3  0  0  0
 12 13  1  0  0  0
 12 14  1  0  0  0
 12 15  1  0  0  0
 13 25  1  0  0  0
 13 26  1  0  0  0
 13 27  1  0  0  0
 14 28  1  0  0  0
 14 29  1  0  0  0
 14 30  1  0  0  0
 15 31  1  0  0  0
 15 32  1  0  0  0
 15 33  1  0  0  0
 16 17  1  0  0  0
 16 34  1  0  0  0
 16 35  1  0  0  0
 17 18  1  0  0  0
 17 19  1  0  0  0
 17 36  1  0  0  0
 18 37  1  0  0  0
 18 38  1  0  0  0
 18 39  1  0  0  0
 19 40  1  0  0  0
 19 41  1  0  0  0
 19 42  1  0  0  0
M  END
> <chembl_id>
CHEMBL200160

> <chembl_pref_name>
None

> <i_m_ct_stereo_status>
1

> <s_m_source_file>
sdf/inactives_sanitized.sdf

> <i_m_source_file_index>
356

> <i_lp_mmshare_version>
49012

> <i_f3d_flags>
0

> <s_epik_input>
W0NIM11DKFtDSDNdKShbQ0gzXSlPQyg9TylbTkhdW0NAQEhdKFtDSDJdW0NIXShbQ0gzXSlbQ0gzXSlDKD1PKVtOSF1bQ0gyXUMjTg==

> <s_epik_cmdline>
J2VwaWtfcHl0aG9uJywgJy1waHQnLCAnMC41JywgJy1waCcsICc3LjUnLCAnLW50JywgJy1tYScsICcyMDAnLCAnLWltYWUnLCAnPGluZmlsZS5tYWU+JywgJy1vbWFlJywgJzxvdXRmaWxlLm1hZT4n

> <r_lp_tautomer_probability>
1

> <r_epik_Ionization_Penalty>
  0.0000

> <r_epik_Ionization_Penalty_Charging>
  0.0000

> <r_epik_Ionization_Penalty_Neutral>
  0.0000

> <r_epik_State_Penalty>
 -0.0000

> <r_epik_Charging_Adjusted_Penalty>
0

> <i_epik_Tot_Q>
0

> <i_epik_Tot_abs_Q>
0

> <s_epik_Chemistry_Notes>
This compound has an ester and may undergo hydrolysis at high or low pH.

> <s_lp_Force_Field>
OPLS3e

> <r_lp_Energy>
2.936233

> <b_lp_Chiralities_Consistent>
1

> <s_lp_Variant>
sdf/inactives_sanitized.sdf:356-1

$$$$
sdf/inactives_sanitized.sdf:357
                    3D
 Schrodinger Suite 2020-1.
 71 74  0  0  1  0            999 V2000
   -2.3648    0.2863    2.0300 C   0  0  0  0  0  0
   -2.2976    1.3528    1.2054 N   0  0  0  0  0  0
   -2.0314   -0.8514    1.6890 O   0  0  0  0  0  0
   -1.8198    1.3500   -0.1830 C   0  0  2  0  0  0
   -0.2848    1.1619   -0.2043 C   0  0  0  0  0  0
   -2.2881    2.6330   -0.9245 C   0  0  0  0  0  0
   -1.9507    2.6589   -2.4159 C   0  0  0  0  0  0
    0.4561    2.1296   -0.0252 O   0  0  0  0  0  0
    0.1553   -0.0962   -0.3837 N   0  0  0  0  0  0
    1.5379   -0.5278   -0.1689 C   0  0  2  0  0  0
    1.8620   -1.6395   -1.0767 C   0  0  0  0  0  0
    2.1168   -2.5142   -1.7905 N   0  0  0  0  0  0
   -1.3329    3.7868   -2.9680 C   0  0  0  0  0  0
   -1.0179    3.8257   -4.3266 C   0  0  0  0  0  0
   -1.3227    2.7387   -5.1450 C   0  0  0  0  0  0
   -1.9457    1.6134   -4.6051 C   0  0  0  0  0  0
   -2.2614    1.5747   -3.2465 C   0  0  0  0  0  0
    1.8098   -0.8861    1.3081 C   0  0  0  0  0  0
   -2.8509    0.5524    3.4364 C   0  0  0  0  0  0
   -3.6712    1.6483    3.7320 C   0  0  0  0  0  0
   -4.0847    1.8895    5.0383 C   0  0  0  0  0  0
   -3.7023    1.0392    6.0832 C   0  0  0  0  0  0
   -2.9029   -0.0696    5.7783 C   0  0  0  0  0  0
   -2.4849   -0.3131    4.4732 C   0  0  0  0  0  0
   -4.1361    1.3094    7.4887 C   0  0  0  0  0  0
   -4.3948    0.2543    8.3764 C   0  0  0  0  0  0
   -4.7983    0.5050    9.6853 C   0  0  0  0  0  0
   -4.9473    1.8180   10.1210 C   0  0  0  0  0  0
   -4.6952    2.8799    9.2580 C   0  0  0  0  0  0
   -4.2918    2.6250    7.9500 C   0  0  0  0  0  0
   -2.3674    0.1308   -5.7215 Br  0  0  0  0  0  0
    1.5213    0.2510    2.1093 O   0  0  0  0  0  0
    1.3897    0.0160    3.5020 C   0  0  0  0  0  0
    0.8320    1.2680    4.1448 C   0  0  0  0  0  0
    0.2905    1.2365    5.3518 N   0  0  0  0  0  0
   -0.1884    2.4980    5.6617 N   0  0  0  0  0  0
    0.1193    3.2850    4.6260 N   0  0  0  0  0  0
    0.7552    2.5644    3.6498 C   0  0  0  0  0  0
   -0.2425    4.7009    4.6371 C   0  0  0  0  0  0
   -1.6363    4.9845    4.0163 C   0  0  0  0  0  0
   -1.7501    4.6890    2.5099 C   0  0  0  0  0  0
   -0.7156    4.7442    1.8088 O   0  5  0  0  0  0
   -2.8956    4.4507    2.0699 O   0  0  0  0  0  0
   -2.5626    2.2593    1.5653 H   0  0  0  0  0  0
   -2.2902    0.4831   -0.6511 H   0  0  0  0  0  0
   -3.3688    2.7475   -0.8293 H   0  0  0  0  0  0
   -1.8619    3.5113   -0.4357 H   0  0  0  0  0  0
   -0.5317   -0.8309   -0.4729 H   0  0  0  0  0  0
    2.2228    0.2671   -0.4724 H   0  0  0  0  0  0
   -1.0893    4.6348   -2.3442 H   0  0  0  0  0  0
   -0.5370    4.6981   -4.7438 H   0  0  0  0  0  0
   -1.0775    2.7707   -6.1964 H   0  0  0  0  0  0
   -2.7512    0.7001   -2.8452 H   0  0  0  0  0  0
    1.1794   -1.7308    1.5941 H   0  0  0  0  0  0
    2.8488   -1.1853    1.4541 H   0  0  0  0  0  0
   -4.0018    2.3233    2.9569 H   0  0  0  0  0  0
   -4.7155    2.7454    5.2275 H   0  0  0  0  0  0
   -2.5777   -0.7438    6.5565 H   0  0  0  0  0  0
   -1.8534   -1.1694    4.2827 H   0  0  0  0  0  0
   -4.2951   -0.7719    8.0548 H   0  0  0  0  0  0
   -4.9969   -0.3159   10.3586 H   0  0  0  0  0  0
   -5.2603    2.0140   11.1360 H   0  0  0  0  0  0
   -4.8101    3.8974    9.6014 H   0  0  0  0  0  0
   -4.0904    3.4631    7.2990 H   0  0  0  0  0  0
    0.7399   -0.8412    3.6891 H   0  0  0  0  0  0
    2.3739   -0.2190    3.9092 H   0  0  0  0  0  0
    1.0700    3.0159    2.7203 H   0  0  0  0  0  0
   -0.2433    5.0382    5.6751 H   0  0  0  0  0  0
    0.5446    5.2788    4.1496 H   0  0  0  0  0  0
   -2.4165    4.4720    4.5816 H   0  0  0  0  0  0
   -1.8506    6.0469    4.1350 H   0  0  0  0  0  0
  1  2  1  0  0  0
  1  3  2  0  0  0
  1 19  1  0  0  0
  2  4  1  0  0  0
  2 44  1  0  0  0
  4  5  1  0  0  0
  4  6  1  0  0  0
  4 45  1  0  0  0
  5  8  2  0  0  0
  5  9  1  0  0  0
  6  7  1  0  0  0
  6 46  1  0  0  0
  6 47  1  0  0  0
  7 13  2  0  0  0
  7 17  1  0  0  0
  9 10  1  0  0  0
  9 48  1  0  0  0
 10 11  1  0  0  0
 10 18  1  0  0  0
 10 49  1  0  0  0
 11 12  3  0  0  0
 13 14  1  0  0  0
 13 50  1  0  0  0
 14 15  2  0  0  0
 14 51  1  0  0  0
 15 16  1  0  0  0
 15 52  1  0  0  0
 16 17  2  0  0  0
 16 31  1  0  0  0
 17 53  1  0  0  0
 18 32  1  0  0  0
 18 54  1  0  0  0
 18 55  1  0  0  0
 19 20  2  0  0  0
 19 24  1  0  0  0
 20 21  1  0  0  0
 20 56  1  0  0  0
 21 22  2  0  0  0
 21 57  1  0  0  0
 22 23  1  0  0  0
 22 25  1  0  0  0
 23 24  2  0  0  0
 23 58  1  0  0  0
 24 59  1  0  0  0
 25 26  2  0  0  0
 25 30  1  0  0  0
 26 27  1  0  0  0
 26 60  1  0  0  0
 27 28  2  0  0  0
 27 61  1  0  0  0
 28 29  1  0  0  0
 28 62  1  0  0  0
 29 30  2  0  0  0
 29 63  1  0  0  0
 30 64  1  0  0  0
 32 33  1  0  0  0
 33 34  1  0  0  0
 33 65  1  0  0  0
 33 66  1  0  0  0
 34 35  1  0  0  0
 34 38  2  0  0  0
 35 36  2  0  0  0
 36 37  1  0  0  0
 37 38  1  0  0  0
 37 39  1  0  0  0
 38 67  1  0  0  0
 39 40  1  0  0  0
 39 68  1  0  0  0
 39 69  1  0  0  0
 40 41  1  0  0  0
 40 70  1  0  0  0
 40 71  1  0  0  0
 41 42  1  0  0  0
 41 43  2  0  0  0
M  CHG  1  42  -1
M  END
> <chembl_id>
CHEMBL3805261

> <chembl_pref_name>
None

> <i_m_ct_stereo_status>
1

> <s_m_source_file>
sdf/inactives_sanitized.sdf

> <i_m_source_file_index>
357

> <i_lp_mmshare_version>
49012

> <i_f3d_flags>
0

> <s_epik_input>
W2NIXTFbY0hdW2NIXVtjSF1bY0hdYzEtYyhbY0hdW2NIXTIpW2NIXVtjSF1jMkMoPU8pW05IXVtDQEBIXShbQ0gyXWMzW2NIXVtjSF1bY0hdYyhCcilbY0hdMylDKD1PKVtOSF1bQ0BIXShDI04pW0NIMl1PW0NIMl1jNG5ubihbY0hdNClbQ0gyXVtDSDJdQyg9TylbT0hd

> <s_epik_cmdline>
J2VwaWtfcHl0aG9uJywgJy1waHQnLCAnMC41JywgJy1waCcsICc3LjUnLCAnLW50JywgJy1tYScsICcyMDAnLCAnLWltYWUnLCAnPGluZmlsZS5tYWU+JywgJy1vbWFlJywgJzxvdXRmaWxlLm1hZT4n

> <r_lp_tautomer_probability>
1

> <r_epik_Ionization_Penalty>
  0.0002

> <r_epik_Ionization_Penalty_Charging>
  0.0002

> <r_epik_Ionization_Penalty_Neutral>
  0.0000

> <r_epik_State_Penalty>
 -0.0000

> <r_epik_Charging_Adjusted_Penalty>
0.000162122578488078

> <i_epik_Tot_Q>
-1

> <i_epik_Tot_abs_Q>
1

> <s_lp_Force_Field>
OPLS3e

> <r_lp_Energy>
30.288129

> <b_lp_Chiralities_Consistent>
1

> <s_lp_Variant>
sdf/inactives_sanitized.sdf:357-1

$$$$
sdf/inactives_sanitized.sdf:358
                    3D
 Schrodinger Suite 2020-1.
 54 54  0  0  1  0            999 V2000
   -1.1451    0.1456   -2.6878 C   0  0  0  0  0  0
   -0.1478   -0.3251   -1.8322 N   0  0  0  0  0  0
    0.1439    0.2239   -0.4922 C   0  0  2  0  0  0
    1.6609    0.1324   -0.2048 C   0  0  0  0  0  0
    2.3473   -0.7536   -0.7196 O   0  0  0  0  0  0
    2.1429    1.0378    0.6660 N   0  0  0  0  0  0
    3.5276    1.1183    1.1291 C   0  0  1  0  0  0
    4.5038    1.5767    0.0266 C   0  0  0  0  0  0
    3.6037    2.0098    2.3598 C   0  0  0  0  0  0
    3.4651    1.6139    3.6491 C   0  0  0  0  0  0
    3.5853    2.6513    4.7088 N   0  3  0  0  0  0
    3.7999    2.2605    5.8532 O   0  0  0  0  0  0
    3.4540    3.8320    4.3917 O   0  5  0  0  0  0
   -0.6556   -0.5430    0.6048 C   0  0  0  0  0  0
   -2.1343   -0.1252    0.7699 C   0  0  0  0  0  0
   -1.3920   -0.3629   -3.7814 O   0  0  0  0  0  0
   -1.8001    1.2294   -2.1878 O   0  0  0  0  0  0
   -2.9100    1.8209   -2.8642 C   0  0  0  0  0  0
   -4.1922    1.0335   -2.6245 C   0  0  0  0  0  0
   -4.6380    0.1159   -3.5792 C   0  0  0  0  0  0
   -5.8063   -0.6076   -3.3546 C   0  0  0  0  0  0
   -6.5260   -0.4083   -2.1783 C   0  0  0  0  0  0
   -6.0900    0.5103   -1.2258 C   0  0  0  0  0  0
   -4.9228    1.2350   -1.4509 C   0  0  0  0  0  0
   -2.2682    1.3485    1.2123 C   0  0  0  0  0  0
   -2.8830   -1.0861    1.7182 C   0  0  0  0  0  0
    3.1769    0.2021    4.1563 C   0  0  0  0  0  0
    0.4006   -1.1193   -2.1298 H   0  0  0  0  0  0
   -0.0711    1.2941   -0.4548 H   0  0  0  0  0  0
    1.4991    1.6981    1.0774 H   0  0  0  0  0  0
    3.8389    0.1192    1.4387 H   0  0  0  0  0  0
    5.5258    1.6283    0.4036 H   0  0  0  0  0  0
    4.2413    2.5649   -0.3535 H   0  0  0  0  0  0
    4.5092    0.8893   -0.8197 H   0  0  0  0  0  0
    3.7908    3.0503    2.1338 H   0  0  0  0  0  0
   -0.5926   -1.6145    0.4038 H   0  0  0  0  0  0
   -0.1801   -0.4182    1.5803 H   0  0  0  0  0  0
   -2.6209   -0.2299   -0.1987 H   0  0  0  0  0  0
   -3.0480    2.8347   -2.4874 H   0  0  0  0  0  0
   -2.7163    1.9204   -3.9339 H   0  0  0  0  0  0
   -4.0793   -0.0413   -4.4905 H   0  0  0  0  0  0
   -6.1523   -1.3206   -4.0885 H   0  0  0  0  0  0
   -7.4316   -0.9704   -2.0041 H   0  0  0  0  0  0
   -6.6551    0.6604   -0.3178 H   0  0  0  0  0  0
   -4.5892    1.9494   -0.7132 H   0  0  0  0  0  0
   -1.3359    1.7347    1.6255 H   0  0  0  0  0  0
   -3.0394    1.4935    1.9688 H   0  0  0  0  0  0
   -2.5304    1.9849    0.3680 H   0  0  0  0  0  0
   -3.1876   -0.6072    2.6488 H   0  0  0  0  0  0
   -2.2743   -1.9475    1.9948 H   0  0  0  0  0  0
   -3.7852   -1.4719    1.2423 H   0  0  0  0  0  0
    2.9494   -0.4944    3.3508 H   0  0  0  0  0  0
    2.3159    0.2099    4.8257 H   0  0  0  0  0  0
    4.0340   -0.1874    4.7064 H   0  0  0  0  0  0
  1  2  1  0  0  0
  1 16  2  0  0  0
  1 17  1  0  0  0
  2  3  1  0  0  0
  2 28  1  0  0  0
  3  4  1  0  0  0
  3 14  1  0  0  0
  3 29  1  0  0  0
  4  5  2  0  0  0
  4  6  1  0  0  0
  6  7  1  0  0  0
  6 30  1  0  0  0
  7  8  1  0  0  0
  7  9  1  0  0  0
  7 31  1  0  0  0
  8 32  1  0  0  0
  8 33  1  0  0  0
  8 34  1  0  0  0
  9 10  2  0  0  0
  9 35  1  0  0  0
 10 11  1  0  0  0
 10 27  1  0  0  0
 11 12  2  0  0  0
 11 13  1  0  0  0
 14 15  1  0  0  0
 14 36  1  0  0  0
 14 37  1  0  0  0
 15 25  1  0  0  0
 15 26  1  0  0  0
 15 38  1  0  0  0
 17 18  1  0  0  0
 18 19  1  0  0  0
 18 39  1  0  0  0
 18 40  1  0  0  0
 19 20  2  0  0  0
 19 24  1  0  0  0
 20 21  1  0  0  0
 20 41  1  0  0  0
 21 22  2  0  0  0
 21 42  1  0  0  0
 22 23  1  0  0  0
 22 43  1  0  0  0
 23 24  2  0  0  0
 23 44  1  0  0  0
 24 45  1  0  0  0
 25 46  1  0  0  0
 25 47  1  0  0  0
 25 48  1  0  0  0
 26 49  1  0  0  0
 26 50  1  0  0  0
 26 51  1  0  0  0
 27 52  1  0  0  0
 27 53  1  0  0  0
 27 54  1  0  0  0
M  CHG  2  11   1  13  -1
M  END
> <chembl_id>
CHEMBL3902105

> <chembl_pref_name>
None

> <i_m_ct_stereo_status>
1

> <s_m_source_file>
sdf/inactives_sanitized.sdf

> <i_m_source_file_index>
358

> <i_lp_mmshare_version>
49012

> <i_f3d_flags>
0

> <s_epik_input>
W2NIXTFbY0hdW2NIXVtjSF1bY0hdYzFbQ0gyXU9DKD1PKVtOSF1bQ0BASF0oW0NIMl1bQ0hdKFtDSDNdKVtDSDNdKUMoPU8pW05IXVtDQEBIXShbQ0gzXSkvW0NIXT1DKC9bTitdKD1PKVtPLV0pW0NIM10=

> <s_epik_cmdline>
J2VwaWtfcHl0aG9uJywgJy1waHQnLCAnMC41JywgJy1waCcsICc3LjUnLCAnLW50JywgJy1tYScsICcyMDAnLCAnLWltYWUnLCAnPGluZmlsZS5tYWU+JywgJy1vbWFlJywgJzxvdXRmaWxlLm1hZT4n

> <r_lp_tautomer_probability>
1

> <r_epik_Ionization_Penalty>
  0.0000

> <r_epik_Ionization_Penalty_Charging>
  0.0000

> <r_epik_Ionization_Penalty_Neutral>
  0.0000

> <r_epik_State_Penalty>
 -0.0000

> <r_epik_Charging_Adjusted_Penalty>
0

> <i_epik_Tot_Q>
0

> <i_epik_Tot_abs_Q>
2

> <s_epik_Chemistry_Notes>
This compound has an ester and may undergo hydrolysis at high or low pH.

> <s_lp_Force_Field>
OPLS3e

> <r_lp_Energy>
22.947701

> <b_lp_Chiralities_Consistent>
1

> <s_lp_Variant>
sdf/inactives_sanitized.sdf:358-1

$$$$
sdf/inactives_sanitized.sdf:359
                    3D
 Schrodinger Suite 2020-1.
 60 62  0  0  1  0            999 V2000
   -0.8143   -1.0903   -0.1217 C   0  0  0  0  0  0
    0.0178   -0.0257    0.1133 N   0  0  0  0  0  0
   -0.6949    1.0673    0.3920 N   0  0  0  0  0  0
   -2.0240    0.6938    0.3217 N   0  0  0  0  0  0
   -2.1101   -0.5902   -0.0117 C   0  0  0  0  0  0
   -3.4721   -1.3110   -0.1495 C   0  0  1  0  0  0
    1.4793    0.0245    0.1402 C   0  0  1  0  0  0
    2.0061    0.0165    1.5951 C   0  0  0  0  0  0
    2.0744   -1.0335   -0.6976 C   0  0  0  0  0  0
    2.5410   -1.8640   -1.3545 N   0  0  0  0  0  0
   -3.9536   -1.5591    1.3053 C   0  0  0  0  0  0
   -4.5097   -0.4680   -0.7871 N   0  0  0  0  0  0
   -4.4363    0.3202   -1.8826 C   0  0  0  0  0  0
   -3.4029    0.4727   -2.5372 O   0  0  0  0  0  0
   -5.7182    1.0127   -2.2952 C   0  0  0  0  0  0
   -5.8354    1.5404   -3.5898 C   0  0  0  0  0  0
   -7.0018    2.1876   -3.9883 C   0  0  0  0  0  0
   -8.0610    2.3146   -3.0945 C   0  0  0  0  0  0
   -7.9632    1.8003   -1.8051 C   0  0  0  0  0  0
   -6.7971    1.1529   -1.4055 C   0  0  0  0  0  0
    1.7586   -1.2972    2.3650 C   0  0  0  0  0  0
    2.3018   -1.2594    3.8038 C   0  0  0  0  0  0
    2.0477   -2.5629    4.5727 C   0  0  0  0  0  0
   -2.7819   -2.6200   -2.3449 C   0  0  0  0  0  0
   -2.4788   -4.0136   -2.9280 C   0  0  0  0  0  0
   -3.7355   -4.9062   -2.9157 C   0  0  0  0  0  0
   -4.4027   -4.9511   -1.5264 C   0  0  0  0  0  0
   -4.6411   -3.5359   -0.9578 C   0  0  0  0  0  0
   -3.3248   -2.7050   -0.8872 C   0  0  0  0  0  0
   -0.4237   -2.0727   -0.3427 H   0  0  0  0  0  0
    1.7720    0.9646   -0.3301 H   0  0  0  0  0  0
    3.0786    0.2148    1.5740 H   0  0  0  0  0  0
    1.5674    0.8501    2.1463 H   0  0  0  0  0  0
   -3.3088   -2.2682    1.8267 H   0  0  0  0  0  0
   -4.9728   -1.9415    1.3564 H   0  0  0  0  0  0
   -3.9515   -0.6388    1.8923 H   0  0  0  0  0  0
   -5.4159   -0.5312   -0.3479 H   0  0  0  0  0  0
   -5.0253    1.4529   -4.3003 H   0  0  0  0  0  0
   -7.0832    2.5907   -4.9870 H   0  0  0  0  0  0
   -8.9650    2.8189   -3.4032 H   0  0  0  0  0  0
   -8.7880    1.9054   -1.1157 H   0  0  0  0  0  0
   -6.7459    0.7705   -0.3963 H   0  0  0  0  0  0
    0.6885   -1.5063    2.3932 H   0  0  0  0  0  0
    2.2181   -2.1277    1.8270 H   0  0  0  0  0  0
    3.3739   -1.0584    3.7867 H   0  0  0  0  0  0
    1.8443   -0.4309    4.3464 H   0  0  0  0  0  0
    2.4376   -2.4972    5.5888 H   0  0  0  0  0  0
    2.5324   -3.4101    4.0866 H   0  0  0  0  0  0
    0.9816   -2.7810    4.6415 H   0  0  0  0  0  0
   -1.8680   -2.0293   -2.3826 H   0  0  0  0  0  0
   -3.4776   -2.0835   -2.9893 H   0  0  0  0  0  0
   -2.1020   -3.9179   -3.9470 H   0  0  0  0  0  0
   -1.6836   -4.4883   -2.3510 H   0  0  0  0  0  0
   -4.4524   -4.5252   -3.6448 H   0  0  0  0  0  0
   -3.4802   -5.9154   -3.2407 H   0  0  0  0  0  0
   -5.3471   -5.4930   -1.5868 H   0  0  0  0  0  0
   -3.7710   -5.5163   -0.8394 H   0  0  0  0  0  0
   -5.4020   -3.0019   -1.5294 H   0  0  0  0  0  0
   -5.0756   -3.6551    0.0330 H   0  0  0  0  0  0
   -2.6073   -3.2988   -0.3168 H   0  0  0  0  0  0
  1  5  2  0  0  0
  1  2  1  0  0  0
  1 30  1  0  0  0
  2  7  1  0  0  0
  2  3  1  0  0  0
  3  4  2  0  0  0
  4  5  1  0  0  0
  5  6  1  0  0  0
  6 11  1  0  0  0
  6 29  1  0  0  0
  6 12  1  0  0  0
  7  8  1  0  0  0
  7  9  1  0  0  0
  7 31  1  0  0  0
  8 21  1  0  0  0
  8 32  1  0  0  0
  8 33  1  0  0  0
  9 10  3  0  0  0
 11 34  1  0  0  0
 11 35  1  0  0  0
 11 36  1  0  0  0
 12 13  1  0  0  0
 12 37  1  0  0  0
 13 14  2  0  0  0
 13 15  1  0  0  0
 15 16  2  0  0  0
 15 20  1  0  0  0
 16 17  1  0  0  0
 16 38  1  0  0  0
 17 18  2  0  0  0
 17 39  1  0  0  0
 18 19  1  0  0  0
 18 40  1  0  0  0
 19 20  2  0  0  0
 19 41  1  0  0  0
 20 42  1  0  0  0
 21 22  1  0  0  0
 21 43  1  0  0  0
 21 44  1  0  0  0
 22 23  1  0  0  0
 22 45  1  0  0  0
 22 46  1  0  0  0
 23 47  1  0  0  0
 23 48  1  0  0  0
 23 49  1  0  0  0
 24 25  1  0  0  0
 24 29  1  0  0  0
 24 50  1  0  0  0
 24 51  1  0  0  0
 25 26  1  0  0  0
 25 52  1  0  0  0
 25 53  1  0  0  0
 26 27  1  0  0  0
 26 54  1  0  0  0
 26 55  1  0  0  0
 27 28  1  0  0  0
 27 56  1  0  0  0
 27 57  1  0  0  0
 28 29  1  0  0  0
 28 58  1  0  0  0
 28 59  1  0  0  0
 29 60  1  0  0  0
M  END
> <chembl_id>
CHEMBL385857

> <chembl_pref_name>
None

> <i_m_ct_stereo_status>
1

> <s_m_source_file>
sdf/inactives_sanitized.sdf

> <i_m_source_file_index>
359

> <i_lp_mmshare_version>
49012

> <i_f3d_flags>
0

> <s_epik_input>
W0NIM11bQ0gyXVtDSDJdW0NIMl1bQ0BASF0oQyNOKW4xW2NIXWMobm4xKVtDQF0oW0NIM10pKFtDSF0yW0NIMl1bQ0gyXVtDSDJdW0NIMl1bQ0gyXTIpW05IXUMoPU8pYzNbY0hdW2NIXVtjSF1bY0hdW2NIXTM=

> <s_epik_cmdline>
J2VwaWtfcHl0aG9uJywgJy1waHQnLCAnMC41JywgJy1waCcsICc3LjUnLCAnLW50JywgJy1tYScsICcyMDAnLCAnLWltYWUnLCAnPGluZmlsZS5tYWU+JywgJy1vbWFlJywgJzxvdXRmaWxlLm1hZT4n

> <r_lp_tautomer_probability>
1

> <r_epik_Ionization_Penalty>
  0.0000

> <r_epik_Ionization_Penalty_Charging>
  0.0000

> <r_epik_Ionization_Penalty_Neutral>
  0.0000

> <r_epik_State_Penalty>
 -0.0000

> <r_epik_Charging_Adjusted_Penalty>
0

> <i_epik_Tot_Q>
0

> <i_epik_Tot_abs_Q>
0

> <s_lp_Force_Field>
OPLS3e

> <r_lp_Energy>
27.134053

> <b_lp_Chiralities_Consistent>
1

> <s_lp_Variant>
sdf/inactives_sanitized.sdf:359-1

$$$$
sdf/inactives_sanitized.sdf:360
                    3D
 Schrodinger Suite 2020-1.
 63 65  0  0  1  0            999 V2000
   -4.2196    1.0165    0.9406 C   0  0  0  0  0  0
   -4.7645    1.0858   -0.3135 N   0  0  0  0  0  0
   -2.7476    0.5498    0.9516 C   0  0  0  0  0  0
   -1.9223    1.2353   -0.1677 C   0  0  2  0  0  0
   -2.5514    0.9969   -1.5591 C   0  0  0  0  0  0
    0.1265   -0.2262   -0.2763 C   0  0  0  0  0  0
   -0.4743    0.9734   -0.1478 N   0  0  0  0  0  0
    2.4180   -1.2806    1.8804 C   0  0  0  0  0  0
   -4.0508    0.6425   -1.5380 C   0  0  0  0  0  0
    1.6694   -0.2177   -0.2472 C   0  0  1  0  0  0
    2.2208   -1.3550    0.5073 N   0  0  0  0  0  0
   -4.8241    1.2804    1.9814 O   0  0  0  0  0  0
   -1.9125    1.0319   -2.6113 O   0  0  0  0  0  0
   -0.4772   -1.2860   -0.4537 O   0  0  0  0  0  0
    2.2727   -0.1998   -1.6742 C   0  0  0  0  0  0
    2.1761   -0.3110    2.6042 O   0  0  0  0  0  0
    2.9189   -2.4550    2.3082 O   0  0  0  0  0  0
    3.2146   -2.6636    3.6833 C   0  0  0  0  0  0
   -6.1869    1.4254   -0.4539 C   0  0  0  0  0  0
    3.7776    0.0096   -1.7381 C   0  0  0  0  0  0
    3.7134   -4.0826    3.8818 C   0  0  0  0  0  0
   -7.8826    3.1293   -0.5780 O   0  0  0  0  0  0
   -6.5018    2.9249   -0.3182 C   0  0  0  0  0  0
    4.3147    1.3119   -1.6559 C   0  0  0  0  0  0
    4.6551   -1.0957   -1.7077 C   0  0  0  0  0  0
    5.0719   -4.3696    3.7295 C   0  0  0  0  0  0
    2.8120   -5.0968    4.2134 C   0  0  0  0  0  0
   -8.2783    4.4893   -0.4853 C   0  0  0  0  0  0
    5.5294   -5.6723    3.9106 C   0  0  0  0  0  0
    3.2703   -6.3994    4.3944 C   0  0  0  0  0  0
    5.6908    1.4947   -1.6155 C   0  0  0  0  0  0
    6.0280   -0.8919   -1.6663 C   0  0  0  0  0  0
    6.5433    0.3977   -1.6264 C   0  0  0  0  0  0
    4.6268   -6.6808    4.2428 C   0  0  0  0  0  0
   -2.3215    0.7854    1.9279 H   0  0  0  0  0  0
   -2.7343   -0.5372    0.8577 H   0  0  0  0  0  0
   -1.9801    2.3145   -0.0142 H   0  0  0  0  0  0
    0.1146    1.7829   -0.0143 H   0  0  0  0  0  0
   -4.1088   -0.4460   -1.5739 H   0  0  0  0  0  0
   -4.5495    0.9969   -2.4409 H   0  0  0  0  0  0
    1.9966    0.7211    0.2095 H   0  0  0  0  0  0
    2.4310   -2.2116    0.0162 H   0  0  0  0  0  0
    2.0373   -1.1321   -2.1915 H   0  0  0  0  0  0
    1.8046    0.5899   -2.2655 H   0  0  0  0  0  0
    3.9743   -1.9578    4.0240 H   0  0  0  0  0  0
    2.3280   -2.4975    4.2983 H   0  0  0  0  0  0
   -6.5591    1.0769   -1.4183 H   0  0  0  0  0  0
   -6.8062    0.8559    0.2413 H   0  0  0  0  0  0
   -5.8940    3.4924   -1.0257 H   0  0  0  0  0  0
   -6.2409    3.2776    0.6813 H   0  0  0  0  0  0
    3.6586    2.1696   -1.6259 H   0  0  0  0  0  0
    4.2630   -2.1023   -1.7178 H   0  0  0  0  0  0
    5.7708   -3.5873    3.4702 H   0  0  0  0  0  0
    1.7601   -4.8779    4.3291 H   0  0  0  0  0  0
   -9.3429    4.5745   -0.7027 H   0  0  0  0  0  0
   -7.7404    5.1107   -1.2029 H   0  0  0  0  0  0
   -8.1096    4.8853    0.5172 H   0  0  0  0  0  0
    6.5788   -5.9000    3.7940 H   0  0  0  0  0  0
    2.5778   -7.1876    4.6508 H   0  0  0  0  0  0
    6.0997    2.4932   -1.5663 H   0  0  0  0  0  0
    6.6974   -1.7395   -1.6562 H   0  0  0  0  0  0
    7.6123    0.5481   -1.5905 H   0  0  0  0  0  0
    4.9817   -7.6913    4.3833 H   0  0  0  0  0  0
  1  2  1  0  0  0
  1  3  1  0  0  0
  1 12  2  0  0  0
  2  9  1  0  0  0
  2 19  1  0  0  0
  3  4  1  0  0  0
  3 35  1  0  0  0
  3 36  1  0  0  0
  4  5  1  0  0  0
  4  7  1  0  0  0
  4 37  1  0  0  0
  5 13  2  0  0  0
  5  9  1  0  0  0
  6  7  1  0  0  0
  6 10  1  0  0  0
  6 14  2  0  0  0
  7 38  1  0  0  0
  8 11  1  0  0  0
  8 16  2  0  0  0
  8 17  1  0  0  0
  9 39  1  0  0  0
  9 40  1  0  0  0
 10 11  1  0  0  0
 10 15  1  0  0  0
 10 41  1  0  0  0
 11 42  1  0  0  0
 15 20  1  0  0  0
 15 43  1  0  0  0
 15 44  1  0  0  0
 17 18  1  0  0  0
 18 21  1  0  0  0
 18 45  1  0  0  0
 18 46  1  0  0  0
 19 23  1  0  0  0
 19 47  1  0  0  0
 19 48  1  0  0  0
 20 24  2  0  0  0
 20 25  1  0  0  0
 21 26  2  0  0  0
 21 27  1  0  0  0
 22 23  1  0  0  0
 22 28  1  0  0  0
 23 49  1  0  0  0
 23 50  1  0  0  0
 24 31  1  0  0  0
 24 51  1  0  0  0
 25 32  2  0  0  0
 25 52  1  0  0  0
 26 29  1  0  0  0
 26 53  1  0  0  0
 27 30  2  0  0  0
 27 54  1  0  0  0
 28 55  1  0  0  0
 28 56  1  0  0  0
 28 57  1  0  0  0
 29 34  2  0  0  0
 29 58  1  0  0  0
 30 34  1  0  0  0
 30 59  1  0  0  0
 31 33  2  0  0  0
 31 60  1  0  0  0
 32 33  1  0  0  0
 32 61  1  0  0  0
 33 62  1  0  0  0
 34 63  1  0  0  0
M  END
> <chembl_id>
CHEMBL100895

> <chembl_pref_name>
None

> <i_m_ct_stereo_status>
1

> <s_m_source_file>
sdf/inactives_sanitized.sdf

> <i_m_source_file_index>
360

> <i_lp_mmshare_version>
49012

> <i_f3d_flags>
0

> <s_epik_input>
W0NIM11PW0NIMl1bQ0gyXU4oQzE9TylbQ0gyXUMoPU8pW0NAQEhdKFtDSDJdMSlbTkhdQyg9TylbQ0BIXShbQ0gyXWMyW2NIXVtjSF1bY0hdW2NIXVtjSF0yKVtOSF1DKD1PKU9bQ0gyXWMzW2NIXVtjSF1bY0hdW2NIXVtjSF0z

> <s_epik_cmdline>
J2VwaWtfcHl0aG9uJywgJy1waHQnLCAnMC41JywgJy1waCcsICc3LjUnLCAnLW50JywgJy1tYScsICcyMDAnLCAnLWltYWUnLCAnPGluZmlsZS5tYWU+JywgJy1vbWFlJywgJzxvdXRmaWxlLm1hZT4n

> <r_lp_tautomer_probability>
1

> <r_epik_Ionization_Penalty>
  0.0000

> <r_epik_Ionization_Penalty_Charging>
  0.0000

> <r_epik_Ionization_Penalty_Neutral>
  0.0000

> <r_epik_State_Penalty>
 -0.0000

> <r_epik_Charging_Adjusted_Penalty>
0

> <i_epik_Tot_Q>
0

> <i_epik_Tot_abs_Q>
0

> <s_epik_Chemistry_Notes>
This compound has an ester and may undergo hydrolysis at high or low pH.

> <s_lp_Force_Field>
OPLS3e

> <r_lp_Energy>
52.521861

> <b_lp_Chiralities_Consistent>
1

> <s_lp_Variant>
sdf/inactives_sanitized.sdf:360-1

$$$$
sdf/inactives_sanitized.sdf:361
                    3D
 Schrodinger Suite 2020-1.
 35 38  0  0  1  0            999 V2000
   -0.0443    2.5771    0.0000 C   0  0  0  0  0  0
   -2.8902    2.4130   -0.0000 C   0  0  0  0  0  0
   -2.1152    1.2180   -0.0000 C   0  0  0  0  0  0
   -0.6778    1.2963    0.0000 C   0  0  0  0  0  0
    0.0354    0.0617    0.0000 C   0  0  0  0  0  0
   -0.5671   -1.1527    0.0000 N   0  0  0  0  0  0
   -1.9202   -1.1988    0.0000 C   0  0  0  0  0  0
   -2.7275   -0.0610   -0.0000 C   0  0  0  0  0  0
   -0.8550    3.7034   -0.0000 C   0  0  0  0  0  0
   -2.2147    3.6252   -0.0000 C   0  0  0  0  0  0
   -2.7412    4.8771   -0.0000 O   0  0  0  0  0  0
   -1.6559    5.7666    0.0000 C   0  0  0  0  0  0
   -0.4757    5.0074   -0.0000 O   0  0  0  0  0  0
    1.5164   -0.0032   -0.0000 C   0  0  0  0  0  0
    2.2194   -0.0174   -1.2081 C   0  0  0  0  0  0
    3.6113   -0.0564   -1.2099 C   0  0  0  0  0  0
    4.3041   -0.0754    0.0000 C   0  0  0  0  0  0
    3.6113   -0.0564    1.2099 C   0  0  0  0  0  0
    2.2194   -0.0174    1.2081 C   0  0  0  0  0  0
    5.6977   -0.1115    0.0000 N   0  0  0  0  0  0
   -2.5253   -2.5901   -0.0000 C   0  0  0  0  0  0
    1.0329    2.6566    0.0000 H   0  0  0  0  0  0
   -3.9692    2.3603   -0.0000 H   0  0  0  0  0  0
   -3.8054   -0.1407   -0.0000 H   0  0  0  0  0  0
   -1.6911    6.3783   -0.9025 H   0  0  0  0  0  0
   -1.6911    6.3783    0.9025 H   0  0  0  0  0  0
    1.6863    0.0023   -2.1478 H   0  0  0  0  0  0
    4.1434   -0.0701   -2.1503 H   0  0  0  0  0  0
    4.1434   -0.0701    2.1503 H   0  0  0  0  0  0
    1.6863    0.0023    2.1478 H   0  0  0  0  0  0
    6.1943   -0.1292    0.8791 H   0  0  0  0  0  0
    6.1943   -0.1292   -0.8791 H   0  0  0  0  0  0
   -3.6156   -2.5565   -0.0000 H   0  0  0  0  0  0
   -2.2067   -3.1442    0.8837 H   0  0  0  0  0  0
   -2.2067   -3.1442   -0.8837 H   0  0  0  0  0  0
  1  9  2  0  0  0
  1  4  1  0  0  0
  1 22  1  0  0  0
  2  3  1  0  0  0
  2 10  2  0  0  0
  2 23  1  0  0  0
  3  4  2  0  0  0
  3  8  1  0  0  0
  4  5  1  0  0  0
  5  6  2  0  0  0
  5 14  1  0  0  0
  6  7  1  0  0  0
  7  8  2  0  0  0
  7 21  1  0  0  0
  8 24  1  0  0  0
  9 13  1  0  0  0
  9 10  1  0  0  0
 10 11  1  0  0  0
 11 12  1  0  0  0
 12 13  1  0  0  0
 12 25  1  0  0  0
 12 26  1  0  0  0
 14 15  2  0  0  0
 14 19  1  0  0  0
 15 16  1  0  0  0
 15 27  1  0  0  0
 16 17  2  0  0  0
 16 28  1  0  0  0
 17 18  1  0  0  0
 17 20  1  0  0  0
 18 19  2  0  0  0
 18 29  1  0  0  0
 19 30  1  0  0  0
 20 31  1  0  0  0
 20 32  1  0  0  0
 21 33  1  0  0  0
 21 34  1  0  0  0
 21 35  1  0  0  0
M  END
> <chembl_id>
CHEMBL609013

> <chembl_pref_name>
None

> <s_m_source_file>
sdf/inactives_sanitized.sdf

> <i_m_source_file_index>
361

> <i_lp_mmshare_version>
49012

> <i_m_ct_stereo_status>
1

> <i_f3d_flags>
0

> <s_epik_input>
TzFbQ0gyXU9jKFtjSF0yKWMxW2NIXWMoYzIzKWMobmMoW2NIXTMpW0NIM10pLWM0W2NIXVtjSF1jKFtOSDJdKVtjSF1bY0hdNA==

> <s_epik_cmdline>
J2VwaWtfcHl0aG9uJywgJy1waHQnLCAnMC41JywgJy1waCcsICc3LjUnLCAnLW50JywgJy1tYScsICcyMDAnLCAnLWltYWUnLCAnPGluZmlsZS5tYWU+JywgJy1vbWFlJywgJzxvdXRmaWxlLm1hZT4n

> <r_epik_Ionization_Penalty>
  0.1694

> <r_epik_Ionization_Penalty_Charging>
  0.0000

> <r_epik_Ionization_Penalty_Neutral>
  0.1694

> <r_epik_State_Penalty>
  0.1582

> <r_epik_Charging_Adjusted_Penalty>
0.158208122990809

> <i_epik_Tot_Q>
0

> <i_epik_Tot_abs_Q>
0

> <s_epik_Chemistry_Notes>
This compound contains an acetal/aminal-like group ( X-CH(R)-Y where X, Y are N, S, or O) that may be acid/base labile, releasing an aldehyde.

> <s_lp_Force_Field>
OPLS3e

> <r_lp_Energy>
41.086833

> <b_lp_Chiralities_Consistent>
1

> <s_lp_Variant>
sdf/inactives_sanitized.sdf:361-1

$$$$
sdf/inactives_sanitized.sdf:362
                    3D
 Schrodinger Suite 2020-1.
 55 59  0  0  1  0            999 V2000
   -2.4921   -2.4322   -0.4105 C   0  0  0  0  0  0
   -4.7618   -0.7197   -0.0749 C   0  0  0  0  0  0
   -3.4248   -0.1380    0.0745 C   0  0  0  0  0  0
   -2.2483   -1.0171   -0.0827 C   0  0  0  0  0  0
   -1.0217   -0.4499    0.0871 C   0  0  0  0  0  0
   -0.8569    0.9080    0.3999 N   0  0  0  0  0  0
   -1.9169    1.7885    0.4688 C   0  0  0  0  0  0
   -3.2305    1.1697    0.3566 C   0  0  0  0  0  0
   -1.8062    3.0118    0.5781 O   0  0  0  0  0  0
    0.2637    1.2672    1.1812 N   0  0  0  0  0  0
    0.2187   -1.2565   -0.0737 C   0  0  0  0  0  0
    0.6220   -2.1418    0.9290 C   0  0  0  0  0  0
    1.8254   -2.8322    0.8126 C   0  0  0  0  0  0
    2.6423   -2.6451   -0.3138 C   0  0  0  0  0  0
    2.2254   -1.7734   -1.3196 C   0  0  0  0  0  0
    1.0230   -1.0830   -1.2031 C   0  0  0  0  0  0
    3.8603   -3.2684   -0.5059 O   0  0  0  0  0  0
    4.3655   -4.1329    0.5057 C   0  0  0  0  0  0
   -3.7579   -2.8782   -0.5570 C   0  0  0  0  0  0
   -4.8878   -2.0266   -0.3871 C   0  0  0  0  0  0
   -6.0027   -2.7459   -0.5289 O   0  0  0  0  0  0
   -5.5558   -4.0834   -0.4965 C   0  0  0  0  0  0
   -4.1802   -4.1190   -0.8067 O   0  0  0  0  0  0
    1.3249    1.7852    0.5283 C   0  0  0  0  0  0
    1.2383    2.6363   -0.3588 O   0  0  0  0  0  0
    2.4624    1.2057    0.9639 N   0  0  0  0  0  0
    3.7699    1.2900    0.4501 C   0  0  0  0  0  0
    4.7519    0.6163    1.1800 C   0  0  0  0  0  0
    6.0746    0.6179    0.7470 C   0  0  0  0  0  0
    6.4238    1.2912   -0.4224 C   0  0  0  0  0  0
    5.4478    1.9619   -1.1626 C   0  0  0  0  0  0
    4.1241    1.9613   -0.7312 C   0  0  0  0  0  0
    8.1202    1.2680   -0.9365 S   0  0  0  0  0  0
    8.2853    2.2471   -2.4556 C   0  0  0  0  0  0
   -1.6678   -3.1202   -0.5272 H   0  0  0  0  0  0
   -5.6394   -0.1068    0.0714 H   0  0  0  0  0  0
   -4.0885    1.8155    0.4780 H   0  0  0  0  0  0
    0.4233    0.5611    1.8846 H   0  0  0  0  0  0
    0.0114   -2.2805    1.8096 H   0  0  0  0  0  0
    2.1120   -3.5002    1.6105 H   0  0  0  0  0  0
    2.8449   -1.6187   -2.1907 H   0  0  0  0  0  0
    0.7273   -0.3939   -1.9812 H   0  0  0  0  0  0
    5.3360   -4.5203    0.1959 H   0  0  0  0  0  0
    3.7066   -4.9869    0.6690 H   0  0  0  0  0  0
    4.5080   -3.6036    1.4492 H   0  0  0  0  0  0
   -5.7529   -4.5406    0.4754 H   0  0  0  0  0  0
   -6.0985   -4.6514   -1.2530 H   0  0  0  0  0  0
    2.3738    0.5988    1.7657 H   0  0  0  0  0  0
    4.4972    0.0850    2.0863 H   0  0  0  0  0  0
    6.8250    0.0942    1.3216 H   0  0  0  0  0  0
    5.6942    2.4838   -2.0740 H   0  0  0  0  0  0
    3.4010    2.4795   -1.3395 H   0  0  0  0  0  0
    9.3269    2.2640   -2.7754 H   0  0  0  0  0  0
    7.9634    3.2752   -2.2880 H   0  0  0  0  0  0
    7.6893    1.8129   -3.2584 H   0  0  0  0  0  0
  1 19  2  0  0  0
  1  4  1  0  0  0
  1 35  1  0  0  0
  2  3  1  0  0  0
  2 20  2  0  0  0
  2 36  1  0  0  0
  3  4  1  0  0  0
  3  8  2  0  0  0
  4  5  2  0  0  0
  5 11  1  0  0  0
  5  6  1  0  0  0
  6  7  1  0  0  0
  6 10  1  0  0  0
  7  8  1  0  0  0
  7  9  2  0  0  0
  8 37  1  0  0  0
 10 24  1  0  0  0
 10 38  1  0  0  0
 11 16  1  0  0  0
 11 12  2  0  0  0
 12 13  1  0  0  0
 12 39  1  0  0  0
 13 14  2  0  0  0
 13 40  1  0  0  0
 14 17  1  0  0  0
 14 15  1  0  0  0
 15 16  2  0  0  0
 15 41  1  0  0  0
 16 42  1  0  0  0
 17 18  1  0  0  0
 18 43  1  0  0  0
 18 44  1  0  0  0
 18 45  1  0  0  0
 19 20  1  0  0  0
 19 23  1  0  0  0
 20 21  1  0  0  0
 21 22  1  0  0  0
 22 23  1  0  0  0
 22 46  1  0  0  0
 22 47  1  0  0  0
 24 25  2  0  0  0
 24 26  1  0  0  0
 26 27  1  0  0  0
 26 48  1  0  0  0
 27 28  2  0  0  0
 27 32  1  0  0  0
 28 29  1  0  0  0
 28 49  1  0  0  0
 29 30  2  0  0  0
 29 50  1  0  0  0
 30 31  1  0  0  0
 30 33  1  0  0  0
 31 32  2  0  0  0
 31 51  1  0  0  0
 32 52  1  0  0  0
 33 34  1  0  0  0
 34 53  1  0  0  0
 34 54  1  0  0  0
 34 55  1  0  0  0
M  END
> <chembl_id>
CHEMBL596265

> <chembl_pref_name>
None

> <s_m_source_file>
sdf/inactives_sanitized.sdf

> <i_m_source_file_index>
362

> <i_lp_mmshare_version>
49012

> <i_m_ct_stereo_status>
1

> <i_f3d_flags>
0

> <s_epik_input>
TzFbQ0gyXU9jKFtjSF0yKWMxW2NIXWMoYzIzKWMoLWM0W2NIXVtjSF1jKFtjSF1bY0hdNClPW0NIM10pbihjKD1PKVtjSF0zKVtOSF1DKD1PKVtOSF1jNVtjSF1bY0hdYyhbY0hdW2NIXTUpU1tDSDNd

> <s_epik_cmdline>
J2VwaWtfcHl0aG9uJywgJy1waHQnLCAnMC41JywgJy1waCcsICc3LjUnLCAnLW50JywgJy1tYScsICcyMDAnLCAnLWltYWUnLCAnPGluZmlsZS5tYWU+JywgJy1vbWFlJywgJzxvdXRmaWxlLm1hZT4n

> <r_lp_tautomer_probability>
1

> <r_epik_Ionization_Penalty>
  0.0000

> <r_epik_Ionization_Penalty_Charging>
  0.0000

> <r_epik_Ionization_Penalty_Neutral>
  0.0000

> <r_epik_State_Penalty>
 -0.0000

> <r_epik_Charging_Adjusted_Penalty>
1.94746745204686e-07

> <i_epik_Tot_Q>
0

> <i_epik_Tot_abs_Q>
0

> <s_epik_Chemistry_Notes>
This compound contains an acetal/aminal-like group ( X-CH(R)-Y where X, Y are N, S, or O) that may be acid/base labile, releasing an aldehyde.

> <s_lp_Force_Field>
OPLS3e

> <r_lp_Energy>
87.737728

> <b_lp_Chiralities_Consistent>
1

> <s_lp_Variant>
sdf/inactives_sanitized.sdf:362-1

$$$$
sdf/inactives_sanitized.sdf:363
                    3D
 Schrodinger Suite 2020-1.
 45 46  0  0  1  0            999 V2000
   -0.0589   -0.0636    0.0546 C   0  0  0  0  0  0
   -0.6745   -0.8764   -1.1399 C   0  0  0  0  0  0
   -0.1995   -2.3460   -1.1591 C   0  0  0  0  0  0
   -0.5389   -3.0638    0.1623 C   0  0  0  0  0  0
   -0.0452   -2.2787    1.3935 C   0  0  0  0  0  0
   -0.5162   -0.8077    1.3497 C   0  0  0  0  0  0
    4.4469    1.0744   -1.6052 C   0  0  0  0  0  0
    3.4609    0.4836   -0.7637 O   0  0  0  0  0  0
    2.1502    0.7144   -0.9687 C   0  0  0  0  0  0
    1.4195    0.0226   -0.0064 N   0  0  0  0  0  0
    1.6915    1.4200   -1.8707 O   0  0  0  0  0  0
   -0.7274    1.3547    0.1736 C   0  0  0  0  0  0
   -1.9561    1.5498   -0.3527 N   0  0  0  0  0  0
   -0.1440    2.2507    0.7897 O   0  0  0  0  0  0
   -2.7324    2.7935   -0.3131 C   0  0  0  0  0  0
   -2.2110    3.7819   -1.3624 C   0  0  0  0  0  0
    5.8494    0.7112   -1.1362 C   0  0  0  0  0  0
    6.8341    0.4289   -2.0865 C   0  0  0  0  0  0
    8.1259    0.1076   -1.6776 C   0  0  0  0  0  0
    8.4313    0.0731   -0.3188 C   0  0  0  0  0  0
    7.4569    0.3586    0.6352 C   0  0  0  0  0  0
    6.1652    0.6806    0.2269 C   0  0  0  0  0  0
   -2.9808    4.5281   -1.9645 O   0  0  0  0  0  0
   -1.7638   -0.8302   -1.1794 H   0  0  0  0  0  0
   -0.3373   -0.4367   -2.0799 H   0  0  0  0  0  0
   -0.6593   -2.8743   -1.9951 H   0  0  0  0  0  0
    0.8771   -2.3866   -1.3308 H   0  0  0  0  0  0
   -1.6200   -3.1953    0.2309 H   0  0  0  0  0  0
   -0.1108   -4.0669    0.1630 H   0  0  0  0  0  0
   -0.4047   -2.7570    2.3054 H   0  0  0  0  0  0
    1.0440   -2.3205    1.4401 H   0  0  0  0  0  0
   -0.0575   -0.3254    2.2162 H   0  0  0  0  0  0
   -1.5917   -0.7261    1.5262 H   0  0  0  0  0  0
    4.3002    0.7236   -2.6285 H   0  0  0  0  0  0
    4.3454    2.1609   -1.6075 H   0  0  0  0  0  0
    1.9351   -0.6003    0.5977 H   0  0  0  0  0  0
   -2.4044    0.7667   -0.8059 H   0  0  0  0  0  0
   -3.7842    2.5679   -0.4924 H   0  0  0  0  0  0
   -2.6750    3.2492    0.6768 H   0  0  0  0  0  0
   -1.1297    3.8069   -1.4998 H   0  0  0  0  0  0
    6.6013    0.4572   -3.1411 H   0  0  0  0  0  0
    8.8878   -0.1126   -2.4109 H   0  0  0  0  0  0
    9.4334   -0.1759   -0.0019 H   0  0  0  0  0  0
    7.7027    0.3323    1.6867 H   0  0  0  0  0  0
    5.4145    0.9065    0.9705 H   0  0  0  0  0  0
  1  2  1  0  0  0
  1  6  1  0  0  0
  1 10  1  0  0  0
  1 12  1  0  0  0
  2  3  1  0  0  0
  2 24  1  0  0  0
  2 25  1  0  0  0
  3  4  1  0  0  0
  3 26  1  0  0  0
  3 27  1  0  0  0
  4  5  1  0  0  0
  4 28  1  0  0  0
  4 29  1  0  0  0
  5  6  1  0  0  0
  5 30  1  0  0  0
  5 31  1  0  0  0
  6 32  1  0  0  0
  6 33  1  0  0  0
  7  8  1  0  0  0
  7 17  1  0  0  0
  7 34  1  0  0  0
  7 35  1  0  0  0
  8  9  1  0  0  0
  9 10  1  0  0  0
  9 11  2  0  0  0
 10 36  1  0  0  0
 12 13  1  0  0  0
 12 14  2  0  0  0
 13 15  1  0  0  0
 13 37  1  0  0  0
 15 16  1  0  0  0
 15 38  1  0  0  0
 15 39  1  0  0  0
 16 23  2  0  0  0
 16 40  1  0  0  0
 17 18  2  0  0  0
 17 22  1  0  0  0
 18 19  1  0  0  0
 18 41  1  0  0  0
 19 20  2  0  0  0
 19 42  1  0  0  0
 20 21  1  0  0  0
 20 43  1  0  0  0
 21 22  2  0  0  0
 21 44  1  0  0  0
 22 45  1  0  0  0
M  END
> <chembl_id>
CHEMBL3218476

> <chembl_pref_name>
None

> <s_m_source_file>
sdf/inactives_sanitized.sdf

> <i_m_source_file_index>
363

> <i_lp_mmshare_version>
49012

> <i_m_ct_stereo_status>
1

> <i_f3d_flags>
0

> <s_epik_input>
W0NIMl0xW0NIMl1bQ0gyXVtDSDJdW0NIMl1DMShDKD1PKVtOSF1bQ0gyXVtDSF09TylbTkhdQyg9TylPW0NIMl1jMltjSF1bY0hdW2NIXVtjSF1bY0hdMg==

> <s_epik_cmdline>
J2VwaWtfcHl0aG9uJywgJy1waHQnLCAnMC41JywgJy1waCcsICc3LjUnLCAnLW50JywgJy1tYScsICcyMDAnLCAnLWltYWUnLCAnPGluZmlsZS5tYWU+JywgJy1vbWFlJywgJzxvdXRmaWxlLm1hZT4n

> <r_lp_tautomer_probability>
1

> <r_epik_Ionization_Penalty>
  0.0011

> <r_epik_Ionization_Penalty_Charging>
  0.0000

> <r_epik_Ionization_Penalty_Neutral>
  0.0011

> <r_epik_State_Penalty>
 -0.0000

> <r_epik_Charging_Adjusted_Penalty>
0

> <i_epik_Tot_Q>
0

> <i_epik_Tot_abs_Q>
0

> <s_epik_Chemistry_Notes>
This compound has an ester and may undergo hydrolysis at high or low pH.

> <s_lp_Force_Field>
OPLS3e

> <r_lp_Energy>
29.078732

> <b_lp_Chiralities_Consistent>
1

> <s_lp_Variant>
sdf/inactives_sanitized.sdf:363-1

$$$$
sdf/inactives_sanitized.sdf:364
                    3D
 Schrodinger Suite 2020-1.
 49 50  0  0  1  0            999 V2000
   -1.4047   -0.6103   -3.1124 O   0  0  0  0  0  0
   -1.2759    0.1087   -1.9663 C   0  0  0  0  0  0
   -0.1433   -0.3306   -1.2919 N   0  0  0  0  0  0
   -2.0527    0.9884   -1.5896 O   0  0  0  0  0  0
    0.1820    0.1590    0.0587 C   0  0  2  0  0  0
    1.7117    0.0701    0.2503 C   0  0  0  0  0  0
    2.3060    1.1530    0.7783 N   0  0  0  0  0  0
    2.3152   -0.9664   -0.0357 O   0  0  0  0  0  0
    3.7436    1.2670    1.0034 C   0  0  0  0  0  0
    4.5207    1.2809   -0.2488 C   0  0  0  0  0  0
    5.1309    1.2927   -1.2319 N   0  0  0  0  0  0
   -2.5250   -0.5408   -4.0147 C   0  0  0  0  0  0
   -2.6648    0.8686   -4.6417 C   0  0  0  0  0  0
   -3.8383   -0.9682   -3.3114 C   0  0  0  0  0  0
   -2.1869   -1.5599   -5.1215 C   0  0  0  0  0  0
   -0.4818   -0.6889    1.1884 C   0  0  0  0  0  0
   -2.0058   -0.6663    1.1407 C   0  0  0  0  0  0
   -2.7018    0.4415    1.6236 C   0  0  0  0  0  0
   -4.0905    0.5010    1.5459 C   0  0  0  0  0  0
   -2.7037   -1.7418    0.5871 C   0  0  0  0  0  0
   -4.1160   -1.7106    0.4868 C   0  0  0  0  0  0
   -4.8221   -0.5678    0.9728 C   0  0  0  0  0  0
   -6.2348   -0.5336    0.8650 C   0  0  0  0  0  0
   -6.9222   -1.6001    0.2914 C   0  0  0  0  0  0
   -6.2345   -2.7128   -0.1817 C   0  0  0  0  0  0
   -4.8467   -2.7794   -0.0893 C   0  0  0  0  0  0
    0.4409   -1.0429   -1.7054 H   0  0  0  0  0  0
   -0.1195    1.2043    0.1709 H   0  0  0  0  0  0
    1.7488    1.9725    0.9730 H   0  0  0  0  0  0
    3.9455    2.1975    1.5340 H   0  0  0  0  0  0
    4.1040    0.4535    1.6353 H   0  0  0  0  0  0
   -3.4109    0.8771   -5.4372 H   0  0  0  0  0  0
   -1.7214    1.2036   -5.0742 H   0  0  0  0  0  0
   -2.9684    1.6182   -3.9115 H   0  0  0  0  0  0
   -4.1345   -0.2704   -2.5281 H   0  0  0  0  0  0
   -3.7346   -1.9476   -2.8430 H   0  0  0  0  0  0
   -4.6671   -1.0288   -4.0177 H   0  0  0  0  0  0
   -2.9682   -1.6023   -5.8816 H   0  0  0  0  0  0
   -2.0690   -2.5658   -4.7158 H   0  0  0  0  0  0
   -1.2529   -1.3071   -5.6255 H   0  0  0  0  0  0
   -0.1435   -1.7268    1.1413 H   0  0  0  0  0  0
   -0.1738   -0.3230    2.1703 H   0  0  0  0  0  0
   -2.1610    1.2745    2.0486 H   0  0  0  0  0  0
   -4.6165    1.3699    1.9145 H   0  0  0  0  0  0
   -2.1692   -2.6006    0.2065 H   0  0  0  0  0  0
   -6.7772    0.3274    1.2288 H   0  0  0  0  0  0
   -7.9988   -1.5633    0.2125 H   0  0  0  0  0  0
   -6.7821   -3.5317   -0.6247 H   0  0  0  0  0  0
   -4.3202   -3.6466   -0.4613 H   0  0  0  0  0  0
  1 12  1  0  0  0
  1  2  1  0  0  0
  2  4  2  0  0  0
  2  3  1  0  0  0
  3  5  1  0  0  0
  3 27  1  0  0  0
  5 16  1  0  0  0
  5  6  1  0  0  0
  5 28  1  0  0  0
  6  7  1  0  0  0
  6  8  2  0  0  0
  7  9  1  0  0  0
  7 29  1  0  0  0
  9 10  1  0  0  0
  9 30  1  0  0  0
  9 31  1  0  0  0
 10 11  3  0  0  0
 12 14  1  0  0  0
 12 15  1  0  0  0
 12 13  1  0  0  0
 13 32  1  0  0  0
 13 33  1  0  0  0
 13 34  1  0  0  0
 14 35  1  0  0  0
 14 36  1  0  0  0
 14 37  1  0  0  0
 15 38  1  0  0  0
 15 39  1  0  0  0
 15 40  1  0  0  0
 16 17  1  0  0  0
 16 41  1  0  0  0
 16 42  1  0  0  0
 17 18  2  0  0  0
 17 20  1  0  0  0
 18 19  1  0  0  0
 18 43  1  0  0  0
 19 22  2  0  0  0
 19 44  1  0  0  0
 20 21  2  0  0  0
 20 45  1  0  0  0
 21 22  1  0  0  0
 21 26  1  0  0  0
 22 23  1  0  0  0
 23 24  2  0  0  0
 23 46  1  0  0  0
 24 25  1  0  0  0
 24 47  1  0  0  0
 25 26  2  0  0  0
 25 48  1  0  0  0
 26 49  1  0  0  0
M  END
> <chembl_id>
CHEMBL200557

> <chembl_pref_name>
None

> <i_m_ct_stereo_status>
1

> <s_m_source_file>
sdf/inactives_sanitized.sdf

> <i_m_source_file_index>
364

> <i_lp_mmshare_version>
49012

> <i_f3d_flags>
0

> <s_epik_input>
TiNDW0NIMl1bTkhdQyg9TylbQ0BASF0oW05IXUMoPU8pT0MoW0NIM10pKFtDSDNdKVtDSDNdKVtDSDJdYyhbY0hdMSlbY0hdW2NIXWMoYzEyKVtjSF1bY0hdW2NIXVtjSF0y

> <s_epik_cmdline>
J2VwaWtfcHl0aG9uJywgJy1waHQnLCAnMC41JywgJy1waCcsICc3LjUnLCAnLW50JywgJy1tYScsICcyMDAnLCAnLWltYWUnLCAnPGluZmlsZS5tYWU+JywgJy1vbWFlJywgJzxvdXRmaWxlLm1hZT4n

> <r_lp_tautomer_probability>
1

> <r_epik_Ionization_Penalty>
  0.0000

> <r_epik_Ionization_Penalty_Charging>
  0.0000

> <r_epik_Ionization_Penalty_Neutral>
  0.0000

> <r_epik_State_Penalty>
 -0.0000

> <r_epik_Charging_Adjusted_Penalty>
0

> <i_epik_Tot_Q>
0

> <i_epik_Tot_abs_Q>
0

> <s_epik_Chemistry_Notes>
This compound has an ester and may undergo hydrolysis at high or low pH.

> <s_lp_Force_Field>
OPLS3e

> <r_lp_Energy>
23.564436

> <b_lp_Chiralities_Consistent>
1

> <s_lp_Variant>
sdf/inactives_sanitized.sdf:364-1

$$$$
sdf/inactives_sanitized.sdf:365
                    3D
 Schrodinger Suite 2020-1.
 65 67  0  0  1  0            999 V2000
   -3.0575    0.6313    3.0703 C   0  0  0  0  0  0
   -3.0914    0.8355    1.6962 N   0  0  0  0  0  0
   -2.3585   -0.1882    3.6724 O   0  0  0  0  0  0
   -2.2381    0.0543    0.7885 C   0  0  2  0  0  0
   -0.8373    0.6842    0.6067 C   0  0  0  0  0  0
   -3.0000   -0.1575   -0.5471 C   0  0  0  0  0  0
   -2.2629   -0.9399   -1.6258 C   0  0  0  0  0  0
   -0.7203    1.9034    0.4747 O   0  0  0  0  0  0
    0.1903   -0.1789    0.5455 N   0  0  0  0  0  0
    1.5753    0.1780    0.2358 C   0  0  2  0  0  0
    1.6942    0.8218   -1.0876 C   0  0  0  0  0  0
    1.7884    1.3268   -2.1249 N   0  0  0  0  0  0
   -1.4899   -0.2637   -2.5948 C   0  0  0  0  0  0
   -0.7296   -0.9845   -3.5056 C   0  0  0  0  0  0
   -0.7082   -2.3719   -3.4548 C   0  0  0  0  0  0
   -1.4346   -3.0503   -2.4847 C   0  0  0  0  0  0
   -2.1991   -2.3482   -1.5622 C   0  0  0  0  0  0
   -3.9182    1.4861    3.6551 O   0  0  0  0  0  0
   -4.0867    1.5001    5.0671 C   0  0  0  0  0  0
   -5.1078    2.5577    5.4426 C   0  0  0  0  0  0
   -6.4716    2.2788    5.3259 C   0  0  0  0  0  0
   -7.4096    3.2501    5.6669 C   0  0  0  0  0  0
   -6.9794    4.4946    6.1231 C   0  0  0  0  0  0
   -5.6200    4.7773    6.2416 C   0  0  0  0  0  0
   -4.6813    3.8066    5.9005 C   0  0  0  0  0  0
    2.4975   -1.0494    0.3375 C   0  0  0  0  0  0
    2.0129   -2.0940   -0.4992 O   0  0  0  0  0  0
    2.8045   -3.2732   -0.4663 C   0  0  0  0  0  0
    2.1240   -4.3492   -1.2811 C   0  0  0  0  0  0
    2.0853   -4.2904   -2.6034 N   0  0  0  0  0  0
    1.3894   -5.3878   -3.0801 N   0  0  0  0  0  0
    1.0419   -6.1072   -2.0089 N   0  0  0  0  0  0
    1.4590   -5.4924   -0.8575 C   0  0  0  0  0  0
    0.2622   -7.3294   -2.1528 C   0  0  0  0  0  0
   -1.2527   -7.0347   -2.0024 C   0  0  0  0  0  0
   -2.0625   -8.2564   -1.5367 C   0  0  0  0  0  0
   -1.6041   -9.4009   -1.7542 O   0  5  0  0  0  0
   -3.1587   -8.0196   -0.9834 O   0  0  0  0  0  0
   -3.6726    1.5667    1.3130 H   0  0  0  0  0  0
   -2.1007   -0.9552    1.1868 H   0  0  0  0  0  0
   -3.9366   -0.6802   -0.3444 H   0  0  0  0  0  0
   -3.2925    0.8072   -0.9668 H   0  0  0  0  0  0
    0.0002   -1.1653    0.6514 H   0  0  0  0  0  0
    1.9158    0.9115    0.9689 H   0  0  0  0  0  0
   -1.4793    0.8161   -2.6259 H   0  0  0  0  0  0
   -0.1436   -0.4638   -4.2486 H   0  0  0  0  0  0
   -0.1106   -2.9264   -4.1634 H   0  0  0  0  0  0
   -1.3947   -4.1279   -2.4427 H   0  0  0  0  0  0
   -2.7417   -2.8843   -0.7973 H   0  0  0  0  0  0
   -4.4262    0.5261    5.4243 H   0  0  0  0  0  0
   -3.1374    1.7082    5.5645 H   0  0  0  0  0  0
   -6.8039    1.3141    4.9701 H   0  0  0  0  0  0
   -8.4654    3.0402    5.5781 H   0  0  0  0  0  0
   -7.7071    5.2477    6.3873 H   0  0  0  0  0  0
   -5.2952    5.7448    6.5953 H   0  0  0  0  0  0
   -3.6273    4.0268    5.9906 H   0  0  0  0  0  0
    3.5159   -0.7758    0.0552 H   0  0  0  0  0  0
    2.5308   -1.3939    1.3730 H   0  0  0  0  0  0
    3.8002   -3.0620   -0.8605 H   0  0  0  0  0  0
    2.9382   -3.6080    0.5642 H   0  0  0  0  0  0
    1.2504   -5.9090    0.1169 H   0  0  0  0  0  0
    0.4705   -7.7610   -3.1340 H   0  0  0  0  0  0
    0.6281   -8.0374   -1.4063 H   0  0  0  0  0  0
   -1.4302   -6.2052   -1.3154 H   0  0  0  0  0  0
   -1.6589   -6.7371   -2.9698 H   0  0  0  0  0  0
  1  2  1  0  0  0
  1  3  2  0  0  0
  1 18  1  0  0  0
  2  4  1  0  0  0
  2 39  1  0  0  0
  4  5  1  0  0  0
  4  6  1  0  0  0
  4 40  1  0  0  0
  5  8  2  0  0  0
  5  9  1  0  0  0
  6  7  1  0  0  0
  6 41  1  0  0  0
  6 42  1  0  0  0
  7 13  2  0  0  0
  7 17  1  0  0  0
  9 10  1  0  0  0
  9 43  1  0  0  0
 10 11  1  0  0  0
 10 26  1  0  0  0
 10 44  1  0  0  0
 11 12  3  0  0  0
 13 14  1  0  0  0
 13 45  1  0  0  0
 14 15  2  0  0  0
 14 46  1  0  0  0
 15 16  1  0  0  0
 15 47  1  0  0  0
 16 17  2  0  0  0
 16 48  1  0  0  0
 17 49  1  0  0  0
 18 19  1  0  0  0
 19 20  1  0  0  0
 19 50  1  0  0  0
 19 51  1  0  0  0
 20 21  2  0  0  0
 20 25  1  0  0  0
 21 22  1  0  0  0
 21 52  1  0  0  0
 22 23  2  0  0  0
 22 53  1  0  0  0
 23 24  1  0  0  0
 23 54  1  0  0  0
 24 25  2  0  0  0
 24 55  1  0  0  0
 25 56  1  0  0  0
 26 27  1  0  0  0
 26 57  1  0  0  0
 26 58  1  0  0  0
 27 28  1  0  0  0
 28 29  1  0  0  0
 28 59  1  0  0  0
 28 60  1  0  0  0
 29 30  1  0  0  0
 29 33  2  0  0  0
 30 31  2  0  0  0
 31 32  1  0  0  0
 32 33  1  0  0  0
 32 34  1  0  0  0
 33 61  1  0  0  0
 34 35  1  0  0  0
 34 62  1  0  0  0
 34 63  1  0  0  0
 35 36  1  0  0  0
 35 64  1  0  0  0
 35 65  1  0  0  0
 36 37  1  0  0  0
 36 38  2  0  0  0
M  CHG  1  37  -1
M  END
> <chembl_id>
CHEMBL3804928

> <chembl_pref_name>
None

> <i_m_ct_stereo_status>
1

> <s_m_source_file>
sdf/inactives_sanitized.sdf

> <i_m_source_file_index>
365

> <i_lp_mmshare_version>
49012

> <i_f3d_flags>
0

> <s_epik_input>
W2NIXTFbY0hdW2NIXVtjSF1bY0hdYzFbQ0gyXU9DKD1PKVtOSF1bQ0BASF0oW0NIMl1jMltjSF1bY0hdW2NIXVtjSF1bY0hdMilDKD1PKVtOSF1bQ0BIXShDI04pW0NIMl1PW0NIMl1jM25ubihbY0hdMylbQ0gyXVtDSDJdQyg9TylbT0hd

> <s_epik_cmdline>
J2VwaWtfcHl0aG9uJywgJy1waHQnLCAnMC41JywgJy1waCcsICc3LjUnLCAnLW50JywgJy1tYScsICcyMDAnLCAnLWltYWUnLCAnPGluZmlsZS5tYWU+JywgJy1vbWFlJywgJzxvdXRmaWxlLm1hZT4n

> <r_lp_tautomer_probability>
1

> <r_epik_Ionization_Penalty>
  0.0002

> <r_epik_Ionization_Penalty_Charging>
  0.0002

> <r_epik_Ionization_Penalty_Neutral>
  0.0000

> <r_epik_State_Penalty>
 -0.0000

> <r_epik_Charging_Adjusted_Penalty>
0.000162122578488078

> <i_epik_Tot_Q>
-1

> <i_epik_Tot_abs_Q>
1

> <s_epik_Chemistry_Notes>
This compound has an ester and may undergo hydrolysis at high or low pH.

> <s_lp_Force_Field>
OPLS3e

> <r_lp_Energy>
28.888063

> <b_lp_Chiralities_Consistent>
1

> <s_lp_Variant>
sdf/inactives_sanitized.sdf:365-1

$$$$
sdf/inactives_sanitized.sdf:366
                    3D
 Schrodinger Suite 2020-1.
 55 56  0  0  1  0            999 V2000
   -1.5905   -0.5334   -1.9602 C   0  0  0  0  0  0
   -0.9479   -1.1110   -0.8605 N   0  0  0  0  0  0
   -0.3269   -0.3323    0.2281 C   0  0  2  0  0  0
    1.1040    0.1208   -0.1373 C   0  0  0  0  0  0
    1.9644   -0.7247   -0.3861 O   0  0  0  0  0  0
    1.3265    1.4465   -0.1104 N   0  0  0  0  0  0
    2.6102    2.1071   -0.3444 C   0  0  1  0  0  0
    3.1597    1.8992   -1.7718 C   0  0  0  0  0  0
    2.4891    3.5833    0.0016 C   0  0  0  0  0  0
    2.5956    4.1278    1.2385 C   0  0  0  0  0  0
    2.4471    5.6029    1.3620 N   0  3  0  0  0  0
    2.8611    6.1233    2.3943 O   0  0  0  0  0  0
    1.9132    6.2174    0.4405 O   0  5  0  0  0  0
   -0.4113   -1.1371    1.5494 C   0  0  0  0  0  0
    0.0733   -0.4061    2.7932 C   0  0  0  0  0  0
    1.4077   -0.5445    3.2323 C   0  0  0  0  0  0
    1.8665    0.2039    4.3083 C   0  0  0  0  0  0
    1.0256    1.1136    4.9373 C   0  0  0  0  0  0
   -0.2780    1.2903    4.4904 C   0  0  0  0  0  0
   -0.7565    0.5490    3.4181 C   0  0  0  0  0  0
   -2.1114   -1.1835   -2.8668 O   0  0  0  0  0  0
   -1.5632    0.8217   -1.9159 O   0  0  0  0  0  0
   -2.1267    1.6117   -2.9542 C   0  0  0  0  0  0
   -1.9594    3.0845   -2.6167 C   0  0  0  0  0  0
   -3.0818    3.9133   -2.5450 C   0  0  0  0  0  0
   -2.9301    5.2619   -2.2318 C   0  0  0  0  0  0
   -1.6574    5.7770   -1.9941 C   0  0  0  0  0  0
   -0.5338    4.9567   -2.0681 C   0  0  0  0  0  0
   -0.6846    3.6084   -2.3811 C   0  0  0  0  0  0
    2.8407    3.3878    2.5517 C   0  0  0  0  0  0
   -0.8799   -2.1172   -0.8139 H   0  0  0  0  0  0
   -0.9359    0.5555    0.4195 H   0  0  0  0  0  0
    0.5651    2.0507    0.1637 H   0  0  0  0  0  0
    3.3354    1.6772    0.3489 H   0  0  0  0  0  0
    4.1069    2.4224   -1.9073 H   0  0  0  0  0  0
    2.4670    2.2728   -2.5265 H   0  0  0  0  0  0
    3.3449    0.8473   -1.9884 H   0  0  0  0  0  0
    2.3032    4.2194   -0.8519 H   0  0  0  0  0  0
   -1.4472   -1.4332    1.7243 H   0  0  0  0  0  0
    0.1420   -2.0735    1.4559 H   0  0  0  0  0  0
    2.0758   -1.2318    2.7337 H   0  0  0  0  0  0
    2.8845    0.0869    4.6497 H   0  0  0  0  0  0
    1.3914    1.6967    5.7695 H   0  0  0  0  0  0
   -0.9190    2.0127    4.9736 H   0  0  0  0  0  0
   -1.7648    0.7071    3.0638 H   0  0  0  0  0  0
   -1.6326    1.4025   -3.9044 H   0  0  0  0  0  0
   -3.1846    1.3705   -3.0729 H   0  0  0  0  0  0
   -4.0699    3.5164   -2.7277 H   0  0  0  0  0  0
   -3.7953    5.9058   -2.1728 H   0  0  0  0  0  0
   -1.5400    6.8229   -1.7513 H   0  0  0  0  0  0
    0.4485    5.3662   -1.8843 H   0  0  0  0  0  0
    0.1858    2.9716   -2.4376 H   0  0  0  0  0  0
    2.8404    2.3063    2.4256 H   0  0  0  0  0  0
    2.0588    3.6296    3.2723 H   0  0  0  0  0  0
    3.8022    3.6742    2.9790 H   0  0  0  0  0  0
  1  2  1  0  0  0
  1 21  2  0  0  0
  1 22  1  0  0  0
  2  3  1  0  0  0
  2 31  1  0  0  0
  3  4  1  0  0  0
  3 14  1  0  0  0
  3 32  1  0  0  0
  4  5  2  0  0  0
  4  6  1  0  0  0
  6  7  1  0  0  0
  6 33  1  0  0  0
  7  8  1  0  0  0
  7  9  1  0  0  0
  7 34  1  0  0  0
  8 35  1  0  0  0
  8 36  1  0  0  0
  8 37  1  0  0  0
  9 10  2  0  0  0
  9 38  1  0  0  0
 10 11  1  0  0  0
 10 30  1  0  0  0
 11 12  2  0  0  0
 11 13  1  0  0  0
 14 15  1  0  0  0
 14 39  1  0  0  0
 14 40  1  0  0  0
 15 16  2  0  0  0
 15 20  1  0  0  0
 16 17  1  0  0  0
 16 41  1  0  0  0
 17 18  2  0  0  0
 17 42  1  0  0  0
 18 19  1  0  0  0
 18 43  1  0  0  0
 19 20  2  0  0  0
 19 44  1  0  0  0
 20 45  1  0  0  0
 22 23  1  0  0  0
 23 24  1  0  0  0
 23 46  1  0  0  0
 23 47  1  0  0  0
 24 25  2  0  0  0
 24 29  1  0  0  0
 25 26  1  0  0  0
 25 48  1  0  0  0
 26 27  2  0  0  0
 26 49  1  0  0  0
 27 28  1  0  0  0
 27 50  1  0  0  0
 28 29  2  0  0  0
 28 51  1  0  0  0
 29 52  1  0  0  0
 30 53  1  0  0  0
 30 54  1  0  0  0
 30 55  1  0  0  0
M  CHG  2  11   1  13  -1
M  END
> <chembl_id>
CHEMBL3912190

> <chembl_pref_name>
None

> <i_m_ct_stereo_status>
1

> <s_m_source_file>
sdf/inactives_sanitized.sdf

> <i_m_source_file_index>
366

> <i_lp_mmshare_version>
49012

> <i_f3d_flags>
0

> <s_epik_input>
W2NIXTFbY0hdW2NIXVtjSF1bY0hdYzFbQ0gyXU9DKD1PKVtOSF1bQ0BIXShDKD1PKVtOSF1bQ0BASF0oW0NIM10pL1tDSF09QygvW04rXSg9TylbTy1dKVtDSDNdKVtDSDJdYzJbY0hdW2NIXVtjSF1bY0hdW2NIXTI=

> <s_epik_cmdline>
J2VwaWtfcHl0aG9uJywgJy1waHQnLCAnMC41JywgJy1waCcsICc3LjUnLCAnLW50JywgJy1tYScsICcyMDAnLCAnLWltYWUnLCAnPGluZmlsZS5tYWU+JywgJy1vbWFlJywgJzxvdXRmaWxlLm1hZT4n

> <r_lp_tautomer_probability>
1

> <r_epik_Ionization_Penalty>
  0.0000

> <r_epik_Ionization_Penalty_Charging>
  0.0000

> <r_epik_Ionization_Penalty_Neutral>
  0.0000

> <r_epik_State_Penalty>
 -0.0000

> <r_epik_Charging_Adjusted_Penalty>
0

> <i_epik_Tot_Q>
0

> <i_epik_Tot_abs_Q>
2

> <s_epik_Chemistry_Notes>
This compound has an ester and may undergo hydrolysis at high or low pH.

> <s_lp_Force_Field>
OPLS3e

> <r_lp_Energy>
33.939152

> <b_lp_Chiralities_Consistent>
1

> <s_lp_Variant>
sdf/inactives_sanitized.sdf:366-1

$$$$
sdf/inactives_sanitized.sdf:367
                    3D
 Schrodinger Suite 2020-1.
 52 53  0  0  1  0            999 V2000
    1.8516   -2.5253    0.8785 O   0  0  0  0  0  0
    2.3730   -1.7497   -0.2519 S   0  0  0  0  0  0
    2.2087   -2.2510   -1.6207 O   0  0  0  0  0  0
    0.0638   -0.0143   -0.2063 C   0  0  2  0  0  0
   -0.4805    1.4244   -0.1261 C   0  0  0  0  0  0
   -1.0613    1.7784    1.0322 N   0  0  0  0  0  0
   -0.3393    2.1895   -1.0822 O   0  0  0  0  0  0
   -1.5613    3.1195    1.3173 C   0  0  0  0  0  0
   -0.4850    4.1219    1.4094 C   0  0  0  0  0  0
    0.3604    4.9085    1.4822 N   0  0  0  0  0  0
    1.6100   -0.0189   -0.1689 C   0  0  0  0  0  0
   -0.4572   -0.6705   -1.4084 N   0  0  0  0  0  0
   -1.1826   -1.8046   -1.4372 C   0  0  0  0  0  0
   -1.5449   -2.2458   -2.7636 C   0  0  0  0  0  0
    4.2177   -1.4345    0.0496 C   0  0  0  0  0  0
    5.0064   -2.7444    0.2794 C   0  0  0  0  0  0
   -1.5068   -2.4383   -0.4308 O   0  0  0  0  0  0
   -2.3928   -3.7517   -2.9817 S   0  0  0  0  0  0
   -2.4367   -3.5507   -4.7152 C   0  0  0  0  0  0
   -1.8270   -2.3500   -5.0765 C   0  0  0  0  0  0
   -1.3296   -1.6204   -3.9928 C   0  0  0  0  0  0
   -3.0813   -4.5825   -5.5880 C   0  0  0  0  0  0
   -3.5627   -4.2080   -6.8484 C   0  0  0  0  0  0
   -4.1597   -5.1494   -7.6828 C   0  0  0  0  0  0
   -4.2746   -6.4711   -7.2606 C   0  0  0  0  0  0
   -3.7976   -6.8588   -6.0114 C   0  0  0  0  0  0
   -3.2014   -5.9167   -5.1772 C   0  0  0  0  0  0
    6.4297   -2.4435    0.7812 C   0  0  0  0  0  0
    5.0409   -3.6575   -0.9611 C   0  0  0  0  0  0
   -0.2690   -0.5623    0.6783 H   0  0  0  0  0  0
   -1.1047    1.1068    1.7851 H   0  0  0  0  0  0
   -2.0907    3.1052    2.2699 H   0  0  0  0  0  0
   -2.2773    3.4381    0.5578 H   0  0  0  0  0  0
    2.0354    0.5646   -0.9868 H   0  0  0  0  0  0
    1.9693    0.4396    0.7533 H   0  0  0  0  0  0
   -0.2495   -0.2049   -2.2796 H   0  0  0  0  0  0
    4.6024   -0.8685   -0.7993 H   0  0  0  0  0  0
    4.2815   -0.7875    0.9248 H   0  0  0  0  0  0
    4.5019   -3.2995    1.0720 H   0  0  0  0  0  0
   -1.7394   -2.0112   -6.0982 H   0  0  0  0  0  0
   -0.8285   -0.6703   -4.1088 H   0  0  0  0  0  0
   -3.4826   -3.1854   -7.1872 H   0  0  0  0  0  0
   -4.5317   -4.8559   -8.6535 H   0  0  0  0  0  0
   -4.7363   -7.2022   -7.9078 H   0  0  0  0  0  0
   -3.8873   -7.8865   -5.6915 H   0  0  0  0  0  0
   -2.8298   -6.2363   -4.2148 H   0  0  0  0  0  0
    7.0050   -1.8880    0.0394 H   0  0  0  0  0  0
    6.9740   -3.3623    1.0028 H   0  0  0  0  0  0
    6.4107   -1.8516    1.6971 H   0  0  0  0  0  0
    5.4565   -3.1402   -1.8267 H   0  0  0  0  0  0
    4.0467   -4.0132   -1.2293 H   0  0  0  0  0  0
    5.6508   -4.5435   -0.7817 H   0  0  0  0  0  0
  1  2  2  0  0  0
  2 15  1  0  0  0
  2  3  2  0  0  0
  2 11  1  0  0  0
  4  5  1  0  0  0
  4 11  1  0  0  0
  4 12  1  0  0  0
  4 30  1  0  0  0
  5  6  1  0  0  0
  5  7  2  0  0  0
  6  8  1  0  0  0
  6 31  1  0  0  0
  8  9  1  0  0  0
  8 32  1  0  0  0
  8 33  1  0  0  0
  9 10  3  0  0  0
 11 34  1  0  0  0
 11 35  1  0  0  0
 12 13  1  0  0  0
 12 36  1  0  0  0
 13 17  2  0  0  0
 13 14  1  0  0  0
 14 18  1  0  0  0
 14 21  2  0  0  0
 15 16  1  0  0  0
 15 37  1  0  0  0
 15 38  1  0  0  0
 16 28  1  0  0  0
 16 29  1  0  0  0
 16 39  1  0  0  0
 18 19  1  0  0  0
 19 20  2  0  0  0
 19 22  1  0  0  0
 20 21  1  0  0  0
 20 40  1  0  0  0
 21 41  1  0  0  0
 22 23  2  0  0  0
 22 27  1  0  0  0
 23 24  1  0  0  0
 23 42  1  0  0  0
 24 25  2  0  0  0
 24 43  1  0  0  0
 25 26  1  0  0  0
 25 44  1  0  0  0
 26 27  2  0  0  0
 26 45  1  0  0  0
 27 46  1  0  0  0
 28 47  1  0  0  0
 28 48  1  0  0  0
 28 49  1  0  0  0
 29 50  1  0  0  0
 29 51  1  0  0  0
 29 52  1  0  0  0
M  END
> <chembl_id>
CHEMBL2153164

> <chembl_pref_name>
None

> <s_m_source_file>
sdf/inactives_sanitized.sdf

> <i_m_source_file_index>
367

> <i_lp_mmshare_version>
49012

> <i_m_ct_stereo_status>
1

> <i_f3d_flags>
0

> <s_epik_input>
TiNDW0NIMl1bTkhdQyg9TylbQ0BIXShbQ0gyXVMoPU8pKD1PKVtDSDJdW0NIXShbQ0gzXSlbQ0gzXSlbTkhdQyg9TyljMXNjKFtjSF1bY0hdMSktYzJbY0hdW2NIXVtjSF1bY0hdW2NIXTI=

> <s_epik_cmdline>
J2VwaWtfcHl0aG9uJywgJy1waHQnLCAnMC41JywgJy1waCcsICc3LjUnLCAnLW50JywgJy1tYScsICcyMDAnLCAnLWltYWUnLCAnPGluZmlsZS5tYWU+JywgJy1vbWFlJywgJzxvdXRmaWxlLm1hZT4n

> <r_lp_tautomer_probability>
1

> <r_epik_Ionization_Penalty>
  0.0002

> <r_epik_Ionization_Penalty_Charging>
  0.0000

> <r_epik_Ionization_Penalty_Neutral>
  0.0002

> <r_epik_State_Penalty>
 -0.0000

> <r_epik_Charging_Adjusted_Penalty>
0

> <i_epik_Tot_Q>
0

> <i_epik_Tot_abs_Q>
0

> <s_lp_Force_Field>
OPLS3e

> <r_lp_Energy>
10.48733

> <b_lp_Chiralities_Consistent>
1

> <s_lp_Variant>
sdf/inactives_sanitized.sdf:367-1

$$$$
sdf/inactives_sanitized.sdf:368
                    3D
 Schrodinger Suite 2020-1.
 52 53  0  0  1  0            999 V2000
    2.2959   -2.6884    0.9617 O   0  0  0  0  0  0
    2.6475   -1.8163   -0.1638 S   0  0  0  0  0  0
    2.4845   -2.2975   -1.5400 O   0  0  0  0  0  0
    0.1248   -0.4183   -0.0131 C   0  0  2  0  0  0
   -0.6090    0.9279    0.1683 C   0  0  0  0  0  0
   -1.2513    1.1056    1.3345 N   0  0  0  0  0  0
   -0.5556    1.7783   -0.7216 O   0  0  0  0  0  0
   -1.9371    2.3387    1.7072 C   0  0  0  0  0  0
   -1.0140    3.4724    1.8938 C   0  0  0  0  0  0
   -0.2889    4.3622    2.0409 N   0  0  0  0  0  0
    1.6566   -0.2135    0.0133 C   0  0  0  0  0  0
   -0.3083   -1.1168   -1.2268 N   0  0  0  0  0  0
   -1.5292   -1.6393   -1.4534 C   0  0  0  0  0  0
   -1.6990   -2.2889   -2.7335 C   0  0  0  0  0  0
    4.4418   -1.2490    0.0638 C   0  0  0  0  0  0
    5.4209   -2.4370    0.2045 C   0  0  0  0  0  0
   -2.4511   -1.5993   -0.6361 O   0  0  0  0  0  0
   -2.7973   -3.0473   -3.1408 C   0  0  0  0  0  0
   -2.7139   -3.5447   -4.4561 C   0  0  0  0  0  0
   -1.5229   -3.1315   -5.0525 C   0  0  0  0  0  0
   -0.5337   -2.1503   -4.0252 S   0  0  0  0  0  0
   -3.7549   -4.3911   -5.1224 C   0  0  0  0  0  0
   -3.4001   -5.2628   -6.1601 C   0  0  0  0  0  0
   -4.3670   -6.0503   -6.7797 C   0  0  0  0  0  0
   -5.6935   -5.9682   -6.3648 C   0  0  0  0  0  0
   -6.0612   -5.1057   -5.3355 C   0  0  0  0  0  0
   -5.0936   -4.3191   -4.7156 C   0  0  0  0  0  0
    6.8061   -1.9504    0.6655 C   0  0  0  0  0  0
    5.5328   -3.2845   -1.0771 C   0  0  0  0  0  0
   -0.1190   -1.0738    0.8264 H   0  0  0  0  0  0
   -1.2193    0.3738    2.0296 H   0  0  0  0  0  0
   -2.4686    2.1793    2.6454 H   0  0  0  0  0  0
   -2.6833    2.6100    0.9582 H   0  0  0  0  0  0
    1.9835    0.4608   -0.7798 H   0  0  0  0  0  0
    1.9652    0.2473    0.9525 H   0  0  0  0  0  0
    0.3907   -1.1985   -1.9510 H   0  0  0  0  0  0
    4.6977   -0.6050   -0.7781 H   0  0  0  0  0  0
    4.4574   -0.6284    0.9601 H   0  0  0  0  0  0
    5.0374   -3.0909    0.9896 H   0  0  0  0  0  0
   -3.6392   -3.2439   -2.4927 H   0  0  0  0  0  0
   -1.1845   -3.3492   -6.0546 H   0  0  0  0  0  0
   -2.3742   -5.3420   -6.4889 H   0  0  0  0  0  0
   -4.0889   -6.7228   -7.5777 H   0  0  0  0  0  0
   -6.4439   -6.5785   -6.8455 H   0  0  0  0  0  0
   -7.0924   -5.0456   -5.0199 H   0  0  0  0  0  0
   -5.3958   -3.6500   -3.9231 H   0  0  0  0  0  0
    7.2615   -1.2872   -0.0710 H   0  0  0  0  0  0
    7.4875   -2.7872    0.8237 H   0  0  0  0  0  0
    6.7416   -1.4049    1.6078 H   0  0  0  0  0  0
    5.8350   -2.6782   -1.9318 H   0  0  0  0  0  0
    4.5891   -3.7678   -1.3268 H   0  0  0  0  0  0
    6.2694   -4.0803   -0.9605 H   0  0  0  0  0  0
  1  2  2  0  0  0
  2 15  1  0  0  0
  2  3  2  0  0  0
  2 11  1  0  0  0
  4  5  1  0  0  0
  4 11  1  0  0  0
  4 12  1  0  0  0
  4 30  1  0  0  0
  5  6  1  0  0  0
  5  7  2  0  0  0
  6  8  1  0  0  0
  6 31  1  0  0  0
  8  9  1  0  0  0
  8 32  1  0  0  0
  8 33  1  0  0  0
  9 10  3  0  0  0
 11 34  1  0  0  0
 11 35  1  0  0  0
 12 13  1  0  0  0
 12 36  1  0  0  0
 13 17  2  0  0  0
 13 14  1  0  0  0
 14 18  2  0  0  0
 14 21  1  0  0  0
 15 16  1  0  0  0
 15 37  1  0  0  0
 15 38  1  0  0  0
 16 28  1  0  0  0
 16 29  1  0  0  0
 16 39  1  0  0  0
 18 19  1  0  0  0
 18 40  1  0  0  0
 19 20  2  0  0  0
 19 22  1  0  0  0
 20 21  1  0  0  0
 20 41  1  0  0  0
 22 23  2  0  0  0
 22 27  1  0  0  0
 23 24  1  0  0  0
 23 42  1  0  0  0
 24 25  2  0  0  0
 24 43  1  0  0  0
 25 26  1  0  0  0
 25 44  1  0  0  0
 26 27  2  0  0  0
 26 45  1  0  0  0
 27 46  1  0  0  0
 28 47  1  0  0  0
 28 48  1  0  0  0
 28 49  1  0  0  0
 29 50  1  0  0  0
 29 51  1  0  0  0
 29 52  1  0  0  0
M  END
> <chembl_id>
CHEMBL2153165

> <chembl_pref_name>
None

> <s_m_source_file>
sdf/inactives_sanitized.sdf

> <i_m_source_file_index>
368

> <i_lp_mmshare_version>
49012

> <i_m_ct_stereo_status>
1

> <i_f3d_flags>
0

> <s_epik_input>
TiNDW0NIMl1bTkhdQyg9TylbQ0BIXShbQ0gyXVMoPU8pKD1PKVtDSDJdW0NIXShbQ0gzXSlbQ0gzXSlbTkhdQyg9TyljMVtjSF1jKFtjSF1zMSktYzJbY0hdW2NIXVtjSF1bY0hdW2NIXTI=

> <s_epik_cmdline>
J2VwaWtfcHl0aG9uJywgJy1waHQnLCAnMC41JywgJy1waCcsICc3LjUnLCAnLW50JywgJy1tYScsICcyMDAnLCAnLWltYWUnLCAnPGluZmlsZS5tYWU+JywgJy1vbWFlJywgJzxvdXRmaWxlLm1hZT4n

> <r_lp_tautomer_probability>
1

> <r_epik_Ionization_Penalty>
  0.0002

> <r_epik_Ionization_Penalty_Charging>
  0.0000

> <r_epik_Ionization_Penalty_Neutral>
  0.0002

> <r_epik_State_Penalty>
 -0.0000

> <r_epik_Charging_Adjusted_Penalty>
0

> <i_epik_Tot_Q>
0

> <i_epik_Tot_abs_Q>
0

> <s_lp_Force_Field>
OPLS3e

> <r_lp_Energy>
9.993053

> <b_lp_Chiralities_Consistent>
1

> <s_lp_Variant>
sdf/inactives_sanitized.sdf:368-1

$$$$
sdf/inactives_sanitized.sdf:369
                    3D
 Schrodinger Suite 2020-1.
 49 50  0  0  1  0            999 V2000
    2.1445   -2.5437    1.0307 O   0  0  0  0  0  0
    2.5231   -1.7904   -0.1693 S   0  0  0  0  0  0
    2.2745   -2.3598   -1.4983 O   0  0  0  0  0  0
    0.1244   -0.1841   -0.0743 C   0  0  2  0  0  0
   -0.5038    1.2225    0.0288 C   0  0  0  0  0  0
   -1.2088    1.4832    1.1420 N   0  0  0  0  0  0
   -0.3215    2.0401   -0.8747 O   0  0  0  0  0  0
   -1.9218    2.7338    1.3802 C   0  0  0  0  0  0
   -3.0380    2.9447    0.4409 C   0  0  0  0  0  0
   -3.9143    3.1101   -0.2963 N   0  0  0  0  0  0
    1.6681   -0.1036   -0.0887 C   0  0  0  0  0  0
   -0.3938   -0.9212   -1.2306 N   0  0  0  0  0  0
   -1.6603   -1.3463   -1.4033 C   0  0  0  0  0  0
   -1.8872   -2.0446   -2.6465 C   0  0  0  0  0  0
    4.3636   -1.3550   -0.0405 C   0  0  0  0  0  0
    5.2502   -2.6031    0.1748 C   0  0  0  0  0  0
   -2.5624   -1.1657   -0.5825 O   0  0  0  0  0  0
   -3.4984   -2.5291   -3.0967 S   0  0  0  0  0  0
   -2.9339   -3.2603   -4.5761 C   0  0  0  0  0  0
   -1.5500   -3.1330   -4.6812 C   0  0  0  0  0  0
   -0.9622   -2.4619   -3.6051 C   0  0  0  0  0  0
   -3.8542   -3.8992   -5.5154 C   0  0  0  0  0  0
   -3.5115   -4.2665   -6.8289 C   0  0  0  0  0  0
   -4.5530   -4.8581   -7.5303 C   0  0  0  0  0  0
   -5.9936   -4.9760   -6.5797 S   0  0  0  0  0  0
   -5.1821   -4.2290   -5.2424 C   0  0  0  0  0  0
    6.6909   -2.1936    0.5290 C   0  0  0  0  0  0
    5.2317   -3.5741   -1.0212 C   0  0  0  0  0  0
   -0.1545   -0.7651    0.8081 H   0  0  0  0  0  0
   -1.3342    0.7502    1.8253 H   0  0  0  0  0  0
   -2.3314    2.7201    2.3902 H   0  0  0  0  0  0
   -1.2430    3.5862    1.3214 H   0  0  0  0  0  0
    2.0296    0.4856   -0.9330 H   0  0  0  0  0  0
    2.0340    0.3942    0.8102 H   0  0  0  0  0  0
    0.2806   -1.1146   -1.9563 H   0  0  0  0  0  0
    4.6401   -0.8077   -0.9422 H   0  0  0  0  0  0
    4.4600   -0.6647    0.7978 H   0  0  0  0  0  0
    4.8542   -3.1458    1.0348 H   0  0  0  0  0  0
   -0.9777   -3.5184   -5.5120 H   0  0  0  0  0  0
    0.1023   -2.2889   -3.5348 H   0  0  0  0  0  0
   -2.5341   -4.1053   -7.2592 H   0  0  0  0  0  0
   -4.5397   -5.2231   -8.5467 H   0  0  0  0  0  0
   -5.7199   -4.0690   -4.3197 H   0  0  0  0  0  0
    7.1609   -1.6423   -0.2866 H   0  0  0  0  0  0
    7.3107   -3.0662    0.7390 H   0  0  0  0  0  0
    6.7164   -1.5592    1.4159 H   0  0  0  0  0  0
    5.5360   -3.0780   -1.9435 H   0  0  0  0  0  0
    4.2419   -4.0002   -1.1812 H   0  0  0  0  0  0
    5.9095   -4.4129   -0.8583 H   0  0  0  0  0  0
  1  2  2  0  0  0
  2 15  1  0  0  0
  2  3  2  0  0  0
  2 11  1  0  0  0
  4  5  1  0  0  0
  4 11  1  0  0  0
  4 12  1  0  0  0
  4 29  1  0  0  0
  5  6  1  0  0  0
  5  7  2  0  0  0
  6  8  1  0  0  0
  6 30  1  0  0  0
  8  9  1  0  0  0
  8 31  1  0  0  0
  8 32  1  0  0  0
  9 10  3  0  0  0
 11 33  1  0  0  0
 11 34  1  0  0  0
 12 13  1  0  0  0
 12 35  1  0  0  0
 13 17  2  0  0  0
 13 14  1  0  0  0
 14 18  1  0  0  0
 14 21  2  0  0  0
 15 16  1  0  0  0
 15 36  1  0  0  0
 15 37  1  0  0  0
 16 27  1  0  0  0
 16 28  1  0  0  0
 16 38  1  0  0  0
 18 19  1  0  0  0
 19 20  2  0  0  0
 19 22  1  0  0  0
 20 21  1  0  0  0
 20 39  1  0  0  0
 21 40  1  0  0  0
 22 23  1  0  0  0
 22 26  2  0  0  0
 23 24  2  0  0  0
 23 41  1  0  0  0
 24 25  1  0  0  0
 24 42  1  0  0  0
 25 26  1  0  0  0
 26 43  1  0  0  0
 27 44  1  0  0  0
 27 45  1  0  0  0
 27 46  1  0  0  0
 28 47  1  0  0  0
 28 48  1  0  0  0
 28 49  1  0  0  0
M  END
> <chembl_id>
CHEMBL2153166

> <chembl_pref_name>
None

> <s_m_source_file>
sdf/inactives_sanitized.sdf

> <i_m_source_file_index>
369

> <i_lp_mmshare_version>
49012

> <i_m_ct_stereo_status>
1

> <i_f3d_flags>
0

> <s_epik_input>
TiNDW0NIMl1bTkhdQyg9TylbQ0BIXShbQ0gyXVMoPU8pKD1PKVtDSDJdW0NIXShbQ0gzXSlbQ0gzXSlbTkhdQyg9TyljMXNjKFtjSF1bY0hdMSktYzJbY0hdW2NIXXNbY0hdMg==

> <s_epik_cmdline>
J2VwaWtfcHl0aG9uJywgJy1waHQnLCAnMC41JywgJy1waCcsICc3LjUnLCAnLW50JywgJy1tYScsICcyMDAnLCAnLWltYWUnLCAnPGluZmlsZS5tYWU+JywgJy1vbWFlJywgJzxvdXRmaWxlLm1hZT4n

> <r_lp_tautomer_probability>
1

> <r_epik_Ionization_Penalty>
  0.0002

> <r_epik_Ionization_Penalty_Charging>
  0.0000

> <r_epik_Ionization_Penalty_Neutral>
  0.0002

> <r_epik_State_Penalty>
 -0.0000

> <r_epik_Charging_Adjusted_Penalty>
0

> <i_epik_Tot_Q>
0

> <i_epik_Tot_abs_Q>
0

> <s_lp_Force_Field>
OPLS3e

> <r_lp_Energy>
1.142696

> <b_lp_Chiralities_Consistent>
1

> <s_lp_Variant>
sdf/inactives_sanitized.sdf:369-1

$$$$
sdf/inactives_sanitized.sdf:370
                    3D
 Schrodinger Suite 2020-1.
 59 60  0  0  1  0            999 V2000
    0.1492   -0.0204    0.0445 C   0  0  0  0  0  0
   -0.3718    1.2174   -0.0063 N   0  0  0  0  0  0
    2.6087   -0.1220    2.2890 C   0  0  0  0  0  0
    1.6868   -0.1193   -0.0287 C   0  0  1  0  0  0
   -1.8047    1.5294   -0.0325 C   0  0  2  0  0  0
    2.2404   -0.8166    1.1431 N   0  0  0  0  0  0
   -2.1637    2.2054   -1.3745 C   0  0  0  0  0  0
   -0.5192   -1.0533    0.1119 O   0  0  0  0  0  0
    2.1775   -0.7940   -1.3340 C   0  0  0  0  0  0
    2.5463    1.0985    2.4578 O   0  0  0  0  0  0
   -1.3917    3.0050   -1.9043 O   0  0  0  0  0  0
    3.0470   -1.0028    3.2081 O   0  0  0  0  0  0
   -2.1843    2.4481    1.1635 C   0  0  0  0  0  0
   -3.3572    1.9057   -1.8954 N   0  0  0  0  0  0
    3.4578   -0.5634    4.5002 C   0  0  0  0  0  0
    3.6838   -0.7869   -1.5428 C   0  0  0  0  0  0
    3.8649   -1.7321    5.3906 C   0  0  0  0  0  0
   -2.1894    1.7644    2.5555 C   0  0  0  0  0  0
    4.3222    0.3593   -2.0620 C   0  0  0  0  0  0
    4.4752   -1.8546   -1.0672 C   0  0  0  0  0  0
    4.7844   -1.5029    6.4174 C   0  0  0  0  0  0
    3.3222   -3.0112    5.2151 C   0  0  0  0  0  0
   -3.0570    2.5513    3.5646 C   0  0  0  0  0  0
   -0.7710    1.5041    3.1073 C   0  0  0  0  0  0
    5.8582   -1.7973   -1.1776 C   0  0  0  0  0  0
    5.1690   -2.5448    7.2575 C   0  0  0  0  0  0
    3.7074   -4.0531    6.0548 C   0  0  0  0  0  0
    5.7067    0.3970   -2.1644 C   0  0  0  0  0  0
    4.6296   -3.8157    7.0715 C   0  0  0  0  0  0
    6.4704   -0.6792   -1.7300 C   0  0  0  0  0  0
    0.2485    2.0118   -0.0723 H   0  0  0  0  0  0
    2.0961    0.8946   -0.0688 H   0  0  0  0  0  0
   -2.3973    0.6145    0.0393 H   0  0  0  0  0  0
    2.3110   -1.8234    1.1234 H   0  0  0  0  0  0
    1.8371   -1.8307   -1.3706 H   0  0  0  0  0  0
    1.7209   -0.3036   -2.1959 H   0  0  0  0  0  0
   -1.5620    3.3450    1.1840 H   0  0  0  0  0  0
   -3.1977    2.8124    0.9818 H   0  0  0  0  0  0
   -3.9708    1.2550   -1.4273 H   0  0  0  0  0  0
   -3.6501    2.3291   -2.7638 H   0  0  0  0  0  0
    4.3041    0.1174    4.3913 H   0  0  0  0  0  0
    2.6490   -0.0161    4.9873 H   0  0  0  0  0  0
   -2.6719    0.7936    2.4340 H   0  0  0  0  0  0
    3.7371    1.2085   -2.3836 H   0  0  0  0  0  0
    4.0086   -2.7193   -0.6184 H   0  0  0  0  0  0
    5.2027   -0.5178    6.5666 H   0  0  0  0  0  0
    2.6013   -3.2037    4.4339 H   0  0  0  0  0  0
   -3.5600    3.4032    3.1063 H   0  0  0  0  0  0
   -2.4809    2.9487    4.4000 H   0  0  0  0  0  0
   -3.8337    1.9117    3.9850 H   0  0  0  0  0  0
   -0.6754    1.7385    4.1671 H   0  0  0  0  0  0
   -0.0188    2.0944    2.5847 H   0  0  0  0  0  0
   -0.5013    0.4538    2.9953 H   0  0  0  0  0  0
    6.4603   -2.6219   -0.8255 H   0  0  0  0  0  0
    5.8809   -2.3681    8.0504 H   0  0  0  0  0  0
    3.2911   -5.0405    5.9200 H   0  0  0  0  0  0
    6.1919    1.2697   -2.5757 H   0  0  0  0  0  0
    4.9273   -4.6236    7.7234 H   0  0  0  0  0  0
    7.5469   -0.6414   -1.8103 H   0  0  0  0  0  0
  1  2  1  0  0  0
  1  4  1  0  0  0
  1  8  2  0  0  0
  2  5  1  0  0  0
  2 31  1  0  0  0
  3  6  1  0  0  0
  3 10  2  0  0  0
  3 12  1  0  0  0
  4  6  1  0  0  0
  4  9  1  0  0  0
  4 32  1  0  0  0
  5  7  1  0  0  0
  5 13  1  0  0  0
  5 33  1  0  0  0
  6 34  1  0  0  0
  7 11  2  0  0  0
  7 14  1  0  0  0
  9 16  1  0  0  0
  9 35  1  0  0  0
  9 36  1  0  0  0
 12 15  1  0  0  0
 13 18  1  0  0  0
 13 37  1  0  0  0
 13 38  1  0  0  0
 14 39  1  0  0  0
 14 40  1  0  0  0
 15 17  1  0  0  0
 15 41  1  0  0  0
 15 42  1  0  0  0
 16 19  2  0  0  0
 16 20  1  0  0  0
 17 21  2  0  0  0
 17 22  1  0  0  0
 18 23  1  0  0  0
 18 24  1  0  0  0
 18 43  1  0  0  0
 19 28  1  0  0  0
 19 44  1  0  0  0
 20 25  2  0  0  0
 20 45  1  0  0  0
 21 26  1  0  0  0
 21 46  1  0  0  0
 22 27  2  0  0  0
 22 47  1  0  0  0
 23 48  1  0  0  0
 23 49  1  0  0  0
 23 50  1  0  0  0
 24 51  1  0  0  0
 24 52  1  0  0  0
 24 53  1  0  0  0
 25 30  1  0  0  0
 25 54  1  0  0  0
 26 29  2  0  0  0
 26 55  1  0  0  0
 27 29  1  0  0  0
 27 56  1  0  0  0
 28 30  2  0  0  0
 28 57  1  0  0  0
 29 58  1  0  0  0
 30 59  1  0  0  0
M  END
> <chembl_id>
CHEMBL423787

> <chembl_pref_name>
None

> <i_m_ct_stereo_status>
1

> <s_m_source_file>
sdf/inactives_sanitized.sdf

> <i_m_source_file_index>
370

> <i_lp_mmshare_version>
49012

> <i_f3d_flags>
0

> <s_epik_input>
W2NIXTFbY0hdW2NIXVtjSF1bY0hdYzFbQ0gyXVtDQEBIXShDKD1PKVtOSF1bQ0BIXShDKD1PKVtOSDJdKVtDSDJdW0NIXShbQ0gzXSlbQ0gzXSlbTkhdQyg9TylPW0NIMl1jMltjSF1bY0hdW2NIXVtjSF1bY0hdMg==

> <s_epik_cmdline>
J2VwaWtfcHl0aG9uJywgJy1waHQnLCAnMC41JywgJy1waCcsICc3LjUnLCAnLW50JywgJy1tYScsICcyMDAnLCAnLWltYWUnLCAnPGluZmlsZS5tYWU+JywgJy1vbWFlJywgJzxvdXRmaWxlLm1hZT4n

> <r_lp_tautomer_probability>
1

> <r_epik_Ionization_Penalty>
  0.0000

> <r_epik_Ionization_Penalty_Charging>
  0.0000

> <r_epik_Ionization_Penalty_Neutral>
  0.0000

> <r_epik_State_Penalty>
 -0.0000

> <r_epik_Charging_Adjusted_Penalty>
0

> <i_epik_Tot_Q>
0

> <i_epik_Tot_abs_Q>
0

> <s_epik_Chemistry_Notes>
This compound has an ester and may undergo hydrolysis at high or low pH.

> <s_lp_Force_Field>
OPLS3e

> <r_lp_Energy>
27.378053

> <b_lp_Chiralities_Consistent>
1

> <s_lp_Variant>
sdf/inactives_sanitized.sdf:370-1

$$$$
sdf/inactives_sanitized.sdf:371
                    3D
 Schrodinger Suite 2020-1.
 62 64  0  0  1  0            999 V2000
   -2.7625   -3.7224   -7.1029 C   0  0  0  0  0  0
   -3.7563   -2.7971   -6.7896 C   0  0  0  0  0  0
   -3.4597   -1.7218   -5.9559 C   0  0  0  0  0  0
   -2.1707   -1.5787   -5.4368 C   0  0  0  0  0  0
   -1.1775   -2.5088   -5.7554 C   0  0  0  0  0  0
   -1.4743   -3.5829   -6.5902 C   0  0  0  0  0  0
   -1.8463   -0.4048   -4.5298 C   0  0  0  0  0  0
   -1.4586   -0.8824   -3.2472 O   0  0  0  0  0  0
   -1.0492   -0.0320   -2.2881 C   0  0  0  0  0  0
   -0.7026   -0.7673   -1.1610 N   0  0  0  0  0  0
   -0.9900    1.1943   -2.4110 O   0  0  0  0  0  0
   -0.1642   -0.1142    0.0425 C   0  0  2  0  0  0
    1.3709    0.0119   -0.0271 C   0  0  0  0  0  0
    2.0523   -0.9978   -0.2147 O   0  0  0  0  0  0
    1.8758    1.2453    0.1447 N   0  0  0  0  0  0
    3.3002    1.5889    0.0734 C   0  0  2  0  0  0
    3.6683    2.4684    1.2851 C   0  0  0  0  0  0
    4.7209    2.0849    2.0135 N   0  0  0  0  0  0
    3.0243    3.4879    1.5322 O   0  0  0  0  0  0
   -0.6425   -0.8603    1.3125 C   0  0  0  0  0  0
    3.6662    2.3036   -1.2574 C   0  0  0  0  0  0
   -2.1480   -0.8708    1.5268 C   0  0  0  0  0  0
   -2.7862    0.2418    2.1150 C   0  0  0  0  0  0
   -4.1706    0.2734    2.2205 C   0  0  0  0  0  0
   -4.9344   -0.7746    1.7220 C   0  0  0  0  0  0
   -4.3225   -1.8577    1.1032 C   0  0  0  0  0  0
   -2.9395   -1.9084    0.9886 C   0  0  0  0  0  0
    3.2814    1.4914   -2.4921 C   0  0  0  0  0  0
    4.0123    0.3503   -2.8333 C   0  0  0  0  0  0
    3.6457   -0.4053   -3.9444 C   0  0  0  0  0  0
    2.5511   -0.0166   -4.7164 C   0  0  0  0  0  0
    1.8241    1.1262   -4.3849 C   0  0  0  0  0  0
    2.1887    1.8794   -3.2722 C   0  0  0  0  0  0
    2.1818   -0.7736   -5.8278 N   0  0  0  0  0  0
   -2.9928   -4.5562   -7.7498 H   0  0  0  0  0  0
   -4.7522   -2.9134   -7.1912 H   0  0  0  0  0  0
   -4.2310   -1.0051   -5.7141 H   0  0  0  0  0  0
   -0.1800   -2.4013   -5.3546 H   0  0  0  0  0  0
   -0.7101   -4.3049   -6.8380 H   0  0  0  0  0  0
   -1.0440    0.1798   -4.9825 H   0  0  0  0  0  0
   -2.7137    0.2513   -4.4372 H   0  0  0  0  0  0
   -0.7659   -1.7745   -1.1821 H   0  0  0  0  0  0
   -0.5900    0.8898    0.1297 H   0  0  0  0  0  0
    1.2482    2.0189    0.3110 H   0  0  0  0  0  0
    3.8937    0.6732    0.1292 H   0  0  0  0  0  0
    5.2305    1.2473    1.7732 H   0  0  0  0  0  0
    5.0101    2.6316    2.8116 H   0  0  0  0  0  0
   -0.2952   -1.8951    1.2923 H   0  0  0  0  0  0
   -0.1852   -0.4133    2.1973 H   0  0  0  0  0  0
    3.1813    3.2811   -1.3091 H   0  0  0  0  0  0
    4.7390    2.5023   -1.2981 H   0  0  0  0  0  0
   -2.2009    1.0705    2.4861 H   0  0  0  0  0  0
   -4.6557    1.1200    2.6838 H   0  0  0  0  0  0
   -6.0109   -0.7408    1.8041 H   0  0  0  0  0  0
   -4.9254   -2.6591    0.7021 H   0  0  0  0  0  0
   -2.4736   -2.7444    0.4877 H   0  0  0  0  0  0
    4.8557    0.0423   -2.2326 H   0  0  0  0  0  0
    4.2120   -1.2900   -4.1979 H   0  0  0  0  0  0
    0.9748    1.4317   -4.9785 H   0  0  0  0  0  0
    1.6134    2.7564   -3.0137 H   0  0  0  0  0  0
    1.4194   -0.4589   -6.4104 H   0  0  0  0  0  0
    2.7433   -1.5698   -6.0935 H   0  0  0  0  0  0
  1  2  2  0  0  0
  1  6  1  0  0  0
  1 35  1  0  0  0
  2  3  1  0  0  0
  2 36  1  0  0  0
  3  4  2  0  0  0
  3 37  1  0  0  0
  4  5  1  0  0  0
  4  7  1  0  0  0
  5  6  2  0  0  0
  5 38  1  0  0  0
  6 39  1  0  0  0
  7  8  1  0  0  0
  7 40  1  0  0  0
  7 41  1  0  0  0
  8  9  1  0  0  0
  9 10  1  0  0  0
  9 11  2  0  0  0
 10 12  1  0  0  0
 10 42  1  0  0  0
 12 13  1  0  0  0
 12 20  1  0  0  0
 12 43  1  0  0  0
 13 14  2  0  0  0
 13 15  1  0  0  0
 15 16  1  0  0  0
 15 44  1  0  0  0
 16 17  1  0  0  0
 16 21  1  0  0  0
 16 45  1  0  0  0
 17 18  1  0  0  0
 17 19  2  0  0  0
 18 46  1  0  0  0
 18 47  1  0  0  0
 20 22  1  0  0  0
 20 48  1  0  0  0
 20 49  1  0  0  0
 21 28  1  0  0  0
 21 50  1  0  0  0
 21 51  1  0  0  0
 22 23  2  0  0  0
 22 27  1  0  0  0
 23 24  1  0  0  0
 23 52  1  0  0  0
 24 25  2  0  0  0
 24 53  1  0  0  0
 25 26  1  0  0  0
 25 54  1  0  0  0
 26 27  2  0  0  0
 26 55  1  0  0  0
 27 56  1  0  0  0
 28 29  2  0  0  0
 28 33  1  0  0  0
 29 30  1  0  0  0
 29 57  1  0  0  0
 30 31  2  0  0  0
 30 58  1  0  0  0
 31 32  1  0  0  0
 31 34  1  0  0  0
 32 33  2  0  0  0
 32 59  1  0  0  0
 33 60  1  0  0  0
 34 61  1  0  0  0
 34 62  1  0  0  0
M  END
> <chembl_id>
CHEMBL2381993

> <chembl_pref_name>
None

> <i_m_ct_stereo_status>
1

> <s_m_source_file>
sdf/inactives_sanitized.sdf

> <i_m_source_file_index>
371

> <i_lp_mmshare_version>
49012

> <i_f3d_flags>
0

> <s_epik_input>
W2NIXTFbY0hdW2NIXVtjSF1bY0hdYzFbQ0gyXU9DKD1PKVtOSF1bQ0BASF0oW0NIMl1jMltjSF1bY0hdW2NIXVtjSF1bY0hdMilDKD1PKVtOSF1bQ0BIXShDKD1PKVtOSDJdKVtDSDJdYzNbY0hdW2NIXWMoW05IMl0pW2NIXVtjSF0z

> <s_epik_cmdline>
J2VwaWtfcHl0aG9uJywgJy1waHQnLCAnMC41JywgJy1waCcsICc3LjUnLCAnLW50JywgJy1tYScsICcyMDAnLCAnLWltYWUnLCAnPGluZmlsZS5tYWU+JywgJy1vbWFlJywgJzxvdXRmaWxlLm1hZT4n

> <r_lp_tautomer_probability>
1

> <r_epik_Ionization_Penalty>
  0.0008

> <r_epik_Ionization_Penalty_Charging>
  0.0000

> <r_epik_Ionization_Penalty_Neutral>
  0.0008

> <r_epik_State_Penalty>
 -0.0000

> <r_epik_Charging_Adjusted_Penalty>
0

> <i_epik_Tot_Q>
0

> <i_epik_Tot_abs_Q>
0

> <s_epik_Chemistry_Notes>
This compound has an ester and may undergo hydrolysis at high or low pH.

> <s_lp_Force_Field>
OPLS3e

> <r_lp_Energy>
35.005091

> <b_lp_Chiralities_Consistent>
1

> <s_lp_Variant>
sdf/inactives_sanitized.sdf:371-1

$$$$
sdf/inactives_sanitized.sdf:372
                    3D
 Schrodinger Suite 2020-1.
 59 60  0  0  1  0            999 V2000
   -2.9740    0.9686    2.3796 C   0  0  0  0  0  0
   -3.0229    1.4124    1.1067 N   0  0  0  0  0  0
   -2.3032   -0.0080    2.7234 O   0  0  0  0  0  0
   -2.2816    0.8462   -0.0266 C   0  0  2  0  0  0
   -0.7549    1.0385    0.1189 C   0  0  0  0  0  0
   -0.3024    2.1390    0.4404 O   0  0  0  0  0  0
   -0.0030   -0.0390   -0.1582 N   0  0  0  0  0  0
    1.4605   -0.0893   -0.1003 C   0  0  2  0  0  0
    2.0170   -0.7778   -1.3648 C   0  0  0  0  0  0
    3.2005   -0.3448   -1.8083 N   0  0  0  0  0  0
    1.4027   -1.6980   -1.9052 O   0  0  0  0  0  0
   -2.8262    1.4509   -1.3464 C   0  0  0  0  0  0
    1.9001   -0.8317    1.1888 C   0  0  0  0  0  0
   -2.2501    0.8525   -2.6223 C   0  0  0  0  0  0
   -1.1177    1.4307   -3.2365 C   0  0  0  0  0  0
   -0.5237    0.8084   -4.3263 C   0  0  0  0  0  0
   -1.0242   -0.3970   -4.8020 C   0  0  0  0  0  0
   -2.1165   -0.9958   -4.1867 C   0  0  0  0  0  0
   -2.7243   -0.3893   -3.0953 C   0  0  0  0  0  0
    1.5874   -0.0646    2.4881 C   0  0  0  0  0  0
    2.0308   -0.8158    3.7506 C   0  0  0  0  0  0
    1.6439   -0.0682    5.0345 C   0  0  0  0  0  0
    2.0537   -0.8151    6.2356 N   0  3  0  0  0  0
   -3.8086    1.7222    3.3915 C   0  0  0  0  0  0
   -4.4186    2.9554    3.1003 C   0  0  0  0  0  0
   -5.1748    3.6098    4.0745 C   0  0  0  0  0  0
   -5.3070    3.0150    5.3300 C   0  0  0  0  0  0
   -4.7293    1.8291    5.6405 N   0  0  0  0  0  0
   -3.9972    1.2053    4.6826 C   0  0  0  0  0  0
   -6.0562    3.6405    6.3231 N   0  0  0  0  0  0
   -3.5921    2.2179    0.8933 H   0  0  0  0  0  0
   -2.4994   -0.2245   -0.0544 H   0  0  0  0  0  0
   -0.4555   -0.8954   -0.4447 H   0  0  0  0  0  0
    1.8623    0.9266   -0.0753 H   0  0  0  0  0  0
    3.6821    0.4057   -1.3351 H   0  0  0  0  0  0
    3.6178   -0.7662   -2.6254 H   0  0  0  0  0  0
   -3.9097    1.3233   -1.3815 H   0  0  0  0  0  0
   -2.6640    2.5307   -1.3628 H   0  0  0  0  0  0
    1.4301   -1.8165    1.2298 H   0  0  0  0  0  0
    2.9755   -1.0166    1.1579 H   0  0  0  0  0  0
   -0.7044    2.3533   -2.8558 H   0  0  0  0  0  0
    0.3379    1.2573   -4.7982 H   0  0  0  0  0  0
   -0.5535   -0.8777   -5.6468 H   0  0  0  0  0  0
   -2.4869   -1.9426   -4.5513 H   0  0  0  0  0  0
   -3.5568   -0.8747   -2.6070 H   0  0  0  0  0  0
    2.0672    0.9144    2.4569 H   0  0  0  0  0  0
    0.5161    0.1233    2.5542 H   0  0  0  0  0  0
    1.5834   -1.8108    3.7559 H   0  0  0  0  0  0
    3.1112   -0.9643    3.7232 H   0  0  0  0  0  0
    2.1110    0.9171    5.0555 H   0  0  0  0  0  0
    0.5645    0.0859    5.0712 H   0  0  0  0  0  0
    1.7815   -0.3014    7.0619 H   0  0  0  0  0  0
    3.0561   -0.9384    6.2320 H   0  0  0  0  0  0
   -4.3146    3.4208    2.1307 H   0  0  0  0  0  0
   -5.6438    4.5577    3.8530 H   0  0  0  0  0  0
   -3.5601    0.2627    4.9800 H   0  0  0  0  0  0
   -6.5032    4.5243    6.1288 H   0  0  0  0  0  0
   -6.1516    3.1933    7.2235 H   0  0  0  0  0  0
    1.6039   -1.7195    6.2399 H   0  0  0  0  0  0
  1  2  1  0  0  0
  1  3  2  0  0  0
  1 24  1  0  0  0
  2  4  1  0  0  0
  2 31  1  0  0  0
  4  5  1  0  0  0
  4 12  1  0  0  0
  4 32  1  0  0  0
  5  6  2  0  0  0
  5  7  1  0  0  0
  7  8  1  0  0  0
  7 33  1  0  0  0
  8  9  1  0  0  0
  8 13  1  0  0  0
  8 34  1  0  0  0
  9 10  1  0  0  0
  9 11  2  0  0  0
 10 35  1  0  0  0
 10 36  1  0  0  0
 12 14  1  0  0  0
 12 37  1  0  0  0
 12 38  1  0  0  0
 13 20  1  0  0  0
 13 39  1  0  0  0
 13 40  1  0  0  0
 14 15  2  0  0  0
 14 19  1  0  0  0
 15 16  1  0  0  0
 15 41  1  0  0  0
 16 17  2  0  0  0
 16 42  1  0  0  0
 17 18  1  0  0  0
 17 43  1  0  0  0
 18 19  2  0  0  0
 18 44  1  0  0  0
 19 45  1  0  0  0
 20 21  1  0  0  0
 20 46  1  0  0  0
 20 47  1  0  0  0
 21 22  1  0  0  0
 21 48  1  0  0  0
 21 49  1  0  0  0
 22 23  1  0  0  0
 22 50  1  0  0  0
 22 51  1  0  0  0
 23 52  1  0  0  0
 23 53  1  0  0  0
 23 59  1  0  0  0
 24 25  2  0  0  0
 24 29  1  0  0  0
 25 26  1  0  0  0
 25 54  1  0  0  0
 26 27  2  0  0  0
 26 55  1  0  0  0
 27 28  1  0  0  0
 27 30  1  0  0  0
 28 29  2  0  0  0
 29 56  1  0  0  0
 30 57  1  0  0  0
 30 58  1  0  0  0
M  CHG  1  23   1
M  END
> <chembl_id>
CHEMBL2382074

> <chembl_pref_name>
None

> <i_m_ct_stereo_status>
1

> <s_m_source_file>
sdf/inactives_sanitized.sdf

> <i_m_source_file_index>
372

> <i_lp_mmshare_version>
49012

> <i_f3d_flags>
0

> <s_epik_input>
W2NIXTFuYyhbTkgyXSlbY0hdW2NIXWMxQyg9TylbTkhdW0NAQEhdKFtDSDJdYzJbY0hdW2NIXVtjSF1bY0hdW2NIXTIpQyg9TylbTkhdW0NASF0oQyg9TylbTkgyXSlbQ0gyXVtDSDJdW0NIMl1bQ0gyXVtOSDJd

> <s_epik_cmdline>
J2VwaWtfcHl0aG9uJywgJy1waHQnLCAnMC41JywgJy1waCcsICc3LjUnLCAnLW50JywgJy1tYScsICcyMDAnLCAnLWltYWUnLCAnPGluZmlsZS5tYWU+JywgJy1vbWFlJywgJzxvdXRmaWxlLm1hZT4n

> <r_lp_tautomer_probability>
1

> <r_epik_Ionization_Penalty>
  0.0017

> <r_epik_Ionization_Penalty_Charging>
  0.0014

> <r_epik_Ionization_Penalty_Neutral>
  0.0003

> <r_epik_State_Penalty>
 -0.0000

> <r_epik_Charging_Adjusted_Penalty>
0.00140340395202934

> <i_epik_Tot_Q>
1

> <i_epik_Tot_abs_Q>
1

> <s_lp_Force_Field>
OPLS3e

> <r_lp_Energy>
21.803806

> <b_lp_Chiralities_Consistent>
1

> <s_lp_Variant>
sdf/inactives_sanitized.sdf:372-1

$$$$
sdf/inactives_sanitized.sdf:373
                    3D
 Schrodinger Suite 2020-1.
 56 59  0  0  1  0            999 V2000
   -4.4228   -1.2654    0.0841 C   0  0  0  0  0  0
   -2.8962   -1.4303    0.1687 C   0  0  2  0  0  0
   -2.2710   -0.5346    1.2723 C   0  0  0  0  0  0
   -0.7356   -0.6927    1.3108 C   0  0  0  0  0  0
   -0.1340   -0.2975   -0.0638 C   0  0  2  0  0  0
   -0.6717   -1.3457   -1.0731 C   0  0  0  0  0  0
   -2.2029   -1.2009   -1.2022 C   0  0  0  0  0  0
    1.4315   -0.1785   -0.0765 C   0  0  2  0  0  0
    1.9565    0.5775    1.0695 N   0  0  0  0  0  0
    2.5450    0.0585    2.1651 C   0  0  0  0  0  0
    2.7271   -1.1505    2.3222 O   0  0  0  0  0  0
    3.0134    1.0525    3.2040 C   0  0  0  0  0  0
    4.0314    0.6922    4.0990 C   0  0  0  0  0  0
    4.4732    1.5915    5.0657 C   0  0  0  0  0  0
    3.8972    2.8559    5.1476 C   0  0  0  0  0  0
    2.8822    3.2291    4.2713 C   0  0  0  0  0  0
    2.4404    2.3314    3.3030 C   0  0  0  0  0  0
    2.0314    0.4204   -1.3839 C   0  0  0  0  0  0
    1.2632    0.9676   -2.1782 O   0  0  0  0  0  0
    3.3787    0.3816   -1.5879 N   0  0  0  0  0  0
    4.3061   -0.3952   -0.7414 C   0  0  0  0  0  0
    5.4525   -0.7262   -1.6941 C   0  0  2  0  0  0
    6.9865   -0.8534   -0.7912 Cl  0  0  0  0  0  0
    5.4896    0.4609   -2.6472 C   0  0  1  0  0  0
    6.0222    0.1983   -3.9352 O   0  0  0  0  0  0
    4.9912   -0.3243   -4.7583 C   0  0  0  0  0  0
    3.6806    0.1882   -4.1783 C   0  0  0  0  0  0
    2.5644    0.0454   -4.6734 O   0  0  0  0  0  0
    4.0275    0.8485   -2.8390 C   0  0  1  0  0  0
   -4.6977   -0.2509   -0.2068 H   0  0  0  0  0  0
   -4.8958   -1.4747    1.0442 H   0  0  0  0  0  0
   -4.8538   -1.9492   -0.6480 H   0  0  0  0  0  0
   -2.6773   -2.4615    0.4528 H   0  0  0  0  0  0
   -2.5286    0.5099    1.0881 H   0  0  0  0  0  0
   -2.7110   -0.7683    2.2427 H   0  0  0  0  0  0
   -0.3531   -0.0424    2.0968 H   0  0  0  0  0  0
   -0.4158   -1.6921    1.6108 H   0  0  0  0  0  0
   -0.5193    0.6938   -0.3150 H   0  0  0  0  0  0
   -0.2300   -1.1872   -2.0568 H   0  0  0  0  0  0
   -0.3620   -2.3564   -0.8016 H   0  0  0  0  0  0
   -2.4499   -0.2070   -1.5798 H   0  0  0  0  0  0
   -2.5989   -1.8941   -1.9457 H   0  0  0  0  0  0
    1.7870   -1.2085   -0.0235 H   0  0  0  0  0  0
    1.8555    1.5797    1.0045 H   0  0  0  0  0  0
    4.4914   -0.2850    4.0512 H   0  0  0  0  0  0
    5.2593    1.3085    5.7501 H   0  0  0  0  0  0
    4.2392    3.5522    5.8992 H   0  0  0  0  0  0
    2.4369    4.2106    4.3443 H   0  0  0  0  0  0
    1.6452    2.6420    2.6402 H   0  0  0  0  0  0
    4.7022    0.2432    0.0495 H   0  0  0  0  0  0
    3.9046   -1.3341   -0.3596 H   0  0  0  0  0  0
    5.2390   -1.6527   -2.2298 H   0  0  0  0  0  0
    6.0345    1.2939   -2.1981 H   0  0  0  0  0  0
    5.1256   -0.0074   -5.7925 H   0  0  0  0  0  0
    5.0071   -1.4141   -4.7264 H   0  0  0  0  0  0
    3.9262    1.9299   -2.9397 H   0  0  0  0  0  0
  1  2  1  0  0  0
  1 30  1  0  0  0
  1 31  1  0  0  0
  1 32  1  0  0  0
  2  3  1  0  0  0
  2  7  1  0  0  0
  2 33  1  0  0  0
  3  4  1  0  0  0
  3 34  1  0  0  0
  3 35  1  0  0  0
  4  5  1  0  0  0
  4 36  1  0  0  0
  4 37  1  0  0  0
  5  6  1  0  0  0
  5  8  1  0  0  0
  5 38  1  0  0  0
  6  7  1  0  0  0
  6 39  1  0  0  0
  6 40  1  0  0  0
  7 41  1  0  0  0
  7 42  1  0  0  0
  8  9  1  0  0  0
  8 18  1  0  0  0
  8 43  1  0  0  0
  9 10  1  0  0  0
  9 44  1  0  0  0
 10 11  2  0  0  0
 10 12  1  0  0  0
 12 13  2  0  0  0
 12 17  1  0  0  0
 13 14  1  0  0  0
 13 45  1  0  0  0
 14 15  2  0  0  0
 14 46  1  0  0  0
 15 16  1  0  0  0
 15 47  1  0  0  0
 16 17  2  0  0  0
 16 48  1  0  0  0
 17 49  1  0  0  0
 18 19  2  0  0  0
 18 20  1  0  0  0
 20 21  1  0  0  0
 20 29  1  0  0  0
 21 22  1  0  0  0
 21 50  1  0  0  0
 21 51  1  0  0  0
 22 23  1  0  0  0
 22 24  1  0  0  0
 22 52  1  0  0  0
 24 25  1  0  0  0
 24 29  1  0  0  0
 24 53  1  0  0  0
 25 26  1  0  0  0
 26 27  1  0  0  0
 26 54  1  0  0  0
 26 55  1  0  0  0
 27 28  2  0  0  0
 27 29  1  0  0  0
 29 56  1  0  0  0
M  END
> <chembl_id>
CHEMBL3648401

> <chembl_pref_name>
None

> <i_m_ct_stereo_status>
1

> <s_m_source_file>
sdf/inactives_sanitized.sdf

> <i_m_source_file_index>
373

> <i_lp_mmshare_version>
49012

> <i_f3d_flags>
0

> <s_epik_input>
TzFbQ0gyXUMoPU8pW0NASF0oW0NASF0xMilOKFtDSDJdW0NAQEhdMkNsKUMoPU8pW0NASF0oW0NAQEhdKFtDSDJdW0NIMl0zKVtDSDJdW0NIMl1bQ0BIXTNbQ0gzXSlbTkhdQyg9TyljNFtjSF1bY0hdW2NIXVtjSF1bY0hdNA==

> <s_epik_cmdline>
J2VwaWtfcHl0aG9uJywgJy1waHQnLCAnMC41JywgJy1waCcsICc3LjUnLCAnLW50JywgJy1tYScsICcyMDAnLCAnLWltYWUnLCAnPGluZmlsZS5tYWU+JywgJy1vbWFlJywgJzxvdXRmaWxlLm1hZT4n

> <r_lp_tautomer_probability>
1

> <r_epik_Ionization_Penalty>
  0.0000

> <r_epik_Ionization_Penalty_Charging>
  0.0000

> <r_epik_Ionization_Penalty_Neutral>
  0.0000

> <r_epik_State_Penalty>
 -0.0000

> <r_epik_Charging_Adjusted_Penalty>
0

> <i_epik_Tot_Q>
0

> <i_epik_Tot_abs_Q>
0

> <s_lp_Force_Field>
OPLS3e

> <r_lp_Energy>
28.551747

> <b_lp_Chiralities_Consistent>
1

> <s_lp_Variant>
sdf/inactives_sanitized.sdf:373-1

$$$$
sdf/inactives_sanitized.sdf:374
                    3D
 Schrodinger Suite 2020-1.
 21 22  0  0  1  0            999 V2000
   -0.6855   -1.1891    0.0383 C   0  0  0  0  0  0
    0.0033    0.0220    0.0301 C   0  0  0  0  0  0
   -0.7124    1.2327    0.0224 C   0  0  0  0  0  0
   -2.0767   -1.2558    0.0294 C   0  0  0  0  0  0
   -2.8329   -0.0465   -0.0064 C   0  0  0  0  0  0
   -2.1469    1.2130   -0.0025 C   0  0  0  0  0  0
   -2.8453    2.3939   -0.0258 N   0  0  0  0  0  0
   -4.1966    2.3662   -0.0651 C   0  0  0  0  0  0
   -4.9346    1.1919   -0.0869 C   0  0  0  0  0  0
   -4.2571   -0.0215   -0.0594 C   0  0  0  0  0  0
   -0.0823    2.3438    0.0538 O   0  5  0  0  0  0
   -2.7191   -2.5825    0.0581 N   0  3  0  0  0  0
   -3.5346   -2.8118    0.9455 O   0  0  0  0  0  0
   -2.3786   -3.4000   -0.7910 O   0  5  0  0  0  0
    1.4817   -0.0183    0.0365 N   0  3  0  0  0  0
    2.0298   -0.7472    0.8579 O   0  0  0  0  0  0
    2.0893    0.6490   -0.7953 O   0  5  0  0  0  0
   -0.1212   -2.1113    0.0546 H   0  0  0  0  0  0
   -4.6925    3.3254   -0.0838 H   0  0  0  0  0  0
   -6.0136    1.2196   -0.1255 H   0  0  0  0  0  0
   -4.8226   -0.9404   -0.0849 H   0  0  0  0  0  0
  1  4  2  0  0  0
  1  2  1  0  0  0
  1 18  1  0  0  0
  2  3  2  0  0  0
  2 15  1  0  0  0
  3 11  1  0  0  0
  3  6  1  0  0  0
  4  5  1  0  0  0
  4 12  1  0  0  0
  5 10  2  0  0  0
  5  6  1  0  0  0
  6  7  2  0  0  0
  7  8  1  0  0  0
  8  9  2  0  0  0
  8 19  1  0  0  0
  9 10  1  0  0  0
  9 20  1  0  0  0
 10 21  1  0  0  0
 12 13  2  0  0  0
 12 14  1  0  0  0
 15 16  2  0  0  0
 15 17  1  0  0  0
M  CHG  5  11  -1  12   1  14  -1  15   1  17  -1
M  END
> <chembl_id>
CHEMBL241898

> <chembl_pref_name>
None

> <s_m_source_file>
sdf/inactives_sanitized.sdf

> <i_m_source_file_index>
374

> <i_lp_mmshare_version>
49012

> <i_m_ct_stereo_status>
1

> <i_f3d_flags>
0

> <s_epik_input>
Tz1bTitdKFtPLV0pYzFbY0hdYyhbTitdKD1PKVtPLV0pYyhbT0hdKWMoYzEyKW5bY0hdW2NIXVtjSF0y

> <s_epik_cmdline>
J2VwaWtfcHl0aG9uJywgJy1waHQnLCAnMC41JywgJy1waCcsICc3LjUnLCAnLW50JywgJy1tYScsICcyMDAnLCAnLWltYWUnLCAnPGluZmlsZS5tYWU+JywgJy1vbWFlJywgJzxvdXRmaWxlLm1hZT4n

> <r_lp_tautomer_probability>
1

> <r_epik_Ionization_Penalty>
  0.0000

> <r_epik_Ionization_Penalty_Charging>
  0.0000

> <r_epik_Ionization_Penalty_Neutral>
  0.0000

> <r_epik_State_Penalty>
 -0.0000

> <r_epik_Charging_Adjusted_Penalty>
1.18379119134405e-06

> <i_epik_Tot_Q>
-1

> <i_epik_Tot_abs_Q>
5

> <s_lp_Force_Field>
OPLS3e

> <r_lp_Energy>
29.98092

> <b_lp_Chiralities_Consistent>
1

> <s_lp_Variant>
sdf/inactives_sanitized.sdf:374-1

$$$$
sdf/inactives_sanitized.sdf:375
                    3D
 Schrodinger Suite 2020-1.
 56 59  0  0  1  0            999 V2000
   -4.3905   -1.2820    0.0770 C   0  0  0  0  0  0
   -2.8646   -1.4444    0.1760 C   0  0  2  0  0  0
   -2.2518   -0.5504    1.2880 C   0  0  0  0  0  0
   -0.7164   -0.7080    1.3428 C   0  0  0  0  0  0
   -0.1015   -0.3121   -0.0254 C   0  0  2  0  0  0
   -0.6302   -1.3555   -1.0440 C   0  0  0  0  0  0
   -2.1596   -1.2067   -1.1871 C   0  0  0  0  0  0
    1.4631   -0.1998   -0.0185 C   0  0  2  0  0  0
    1.9696    0.5946    1.1081 N   0  0  0  0  0  0
    2.5809    0.1189    2.2107 C   0  0  0  0  0  0
    2.8134   -1.0787    2.3888 O   0  0  0  0  0  0
    3.0031    1.1492    3.2341 C   0  0  0  0  0  0
    4.0388    0.8521    4.1316 C   0  0  0  0  0  0
    4.4369    1.7854    5.0852 C   0  0  0  0  0  0
    3.7980    3.0202    5.1521 C   0  0  0  0  0  0
    2.7638    3.3300    4.2738 C   0  0  0  0  0  0
    2.3666    2.3989    3.3180 C   0  0  0  0  0  0
    2.0776    0.3716   -1.3297 C   0  0  0  0  0  0
    1.3337    0.9858   -2.0981 O   0  0  0  0  0  0
    3.4123    0.2333   -1.5666 N   0  0  0  0  0  0
    4.3153   -0.5766   -0.7287 C   0  0  0  0  0  0
    5.4226   -1.0202   -1.6868 C   0  0  1  0  0  0
    4.8813   -2.5639   -2.4246 Cl  0  0  0  0  0  0
    5.4848    0.0827   -2.7481 C   0  0  1  0  0  0
    5.8555   -0.3695   -4.0511 O   0  0  0  0  0  0
    4.8930    0.0835   -4.9887 C   0  0  0  0  0  0
    3.6078    0.1219   -4.1899 C   0  0  0  0  0  0
    2.4898   -0.2469   -4.5452 O   0  0  0  0  0  0
    4.0618    0.6489   -2.8312 C   0  0  1  0  0  0
   -4.6653   -0.2637   -0.2004 H   0  0  0  0  0  0
   -4.8733   -1.5086    1.0282 H   0  0  0  0  0  0
   -4.8114   -1.9550   -0.6709 H   0  0  0  0  0  0
   -2.6462   -2.4765    0.4574 H   0  0  0  0  0  0
   -2.5084    0.4941    1.1023 H   0  0  0  0  0  0
   -2.7019   -0.7862    2.2532 H   0  0  0  0  0  0
   -0.3394   -0.0585    2.1323 H   0  0  0  0  0  0
   -0.4000   -1.7078    1.6451 H   0  0  0  0  0  0
   -0.4814    0.6808   -0.2791 H   0  0  0  0  0  0
   -0.1776   -1.1947   -2.0224 H   0  0  0  0  0  0
   -0.3252   -2.3675   -0.7720 H   0  0  0  0  0  0
   -2.4027   -0.2105   -1.5611 H   0  0  0  0  0  0
   -2.5489   -1.8951   -1.9383 H   0  0  0  0  0  0
    1.8091   -1.2296    0.0734 H   0  0  0  0  0  0
    1.8313    1.5910    1.0254 H   0  0  0  0  0  0
    4.5462   -0.1018    4.0964 H   0  0  0  0  0  0
    5.2372    1.5512    5.7716 H   0  0  0  0  0  0
    4.1056    3.7427    5.8938 H   0  0  0  0  0  0
    2.2688    4.2882    4.3356 H   0  0  0  0  0  0
    1.5553    2.6603    2.6536 H   0  0  0  0  0  0
    4.7801    0.0645    0.0212 H   0  0  0  0  0  0
    3.8630   -1.4584   -0.2756 H   0  0  0  0  0  0
    6.3778   -1.1559   -1.1788 H   0  0  0  0  0  0
    6.1566    0.8845   -2.4365 H   0  0  0  0  0  0
    5.1485    1.0818   -5.3457 H   0  0  0  0  0  0
    4.8279   -0.5912   -5.8424 H   0  0  0  0  0  0
    4.0925    1.7383   -2.8787 H   0  0  0  0  0  0
  1  2  1  0  0  0
  1 30  1  0  0  0
  1 31  1  0  0  0
  1 32  1  0  0  0
  2  3  1  0  0  0
  2  7  1  0  0  0
  2 33  1  0  0  0
  3  4  1  0  0  0
  3 34  1  0  0  0
  3 35  1  0  0  0
  4  5  1  0  0  0
  4 36  1  0  0  0
  4 37  1  0  0  0
  5  6  1  0  0  0
  5  8  1  0  0  0
  5 38  1  0  0  0
  6  7  1  0  0  0
  6 39  1  0  0  0
  6 40  1  0  0  0
  7 41  1  0  0  0
  7 42  1  0  0  0
  8  9  1  0  0  0
  8 18  1  0  0  0
  8 43  1  0  0  0
  9 10  1  0  0  0
  9 44  1  0  0  0
 10 11  2  0  0  0
 10 12  1  0  0  0
 12 13  2  0  0  0
 12 17  1  0  0  0
 13 14  1  0  0  0
 13 45  1  0  0  0
 14 15  2  0  0  0
 14 46  1  0  0  0
 15 16  1  0  0  0
 15 47  1  0  0  0
 16 17  2  0  0  0
 16 48  1  0  0  0
 17 49  1  0  0  0
 18 19  2  0  0  0
 18 20  1  0  0  0
 20 21  1  0  0  0
 20 29  1  0  0  0
 21 22  1  0  0  0
 21 50  1  0  0  0
 21 51  1  0  0  0
 22 23  1  0  0  0
 22 24  1  0  0  0
 22 52  1  0  0  0
 24 25  1  0  0  0
 24 29  1  0  0  0
 24 53  1  0  0  0
 25 26  1  0  0  0
 26 27  1  0  0  0
 26 54  1  0  0  0
 26 55  1  0  0  0
 27 28  2  0  0  0
 27 29  1  0  0  0
 29 56  1  0  0  0
M  END
> <chembl_id>
CHEMBL3648402

> <chembl_pref_name>
None

> <i_m_ct_stereo_status>
1

> <s_m_source_file>
sdf/inactives_sanitized.sdf

> <i_m_source_file_index>
375

> <i_lp_mmshare_version>
49012

> <i_f3d_flags>
0

> <s_epik_input>
TzFbQ0gyXUMoPU8pW0NASF0oW0NASF0xMilOKFtDSDJdW0NASF0yQ2wpQyg9TylbQ0BIXShbQ0BASF0oW0NIMl1bQ0gyXTMpW0NIMl1bQ0gyXVtDQEhdM1tDSDNdKVtOSF1DKD1PKWM0W2NIXVtjSF1bY0hdW2NIXVtjSF00

> <s_epik_cmdline>
J2VwaWtfcHl0aG9uJywgJy1waHQnLCAnMC41JywgJy1waCcsICc3LjUnLCAnLW50JywgJy1tYScsICcyMDAnLCAnLWltYWUnLCAnPGluZmlsZS5tYWU+JywgJy1vbWFlJywgJzxvdXRmaWxlLm1hZT4n

> <r_lp_tautomer_probability>
1

> <r_epik_Ionization_Penalty>
  0.0000

> <r_epik_Ionization_Penalty_Charging>
  0.0000

> <r_epik_Ionization_Penalty_Neutral>
  0.0000

> <r_epik_State_Penalty>
 -0.0000

> <r_epik_Charging_Adjusted_Penalty>
0

> <i_epik_Tot_Q>
0

> <i_epik_Tot_abs_Q>
0

> <s_lp_Force_Field>
OPLS3e

> <r_lp_Energy>
28.998466

> <b_lp_Chiralities_Consistent>
1

> <s_lp_Variant>
sdf/inactives_sanitized.sdf:375-1

$$$$
sdf/inactives_sanitized.sdf:376
                    3D
 Schrodinger Suite 2020-1.
 61 65  0  0  1  0            999 V2000
   -2.5402   -3.7054    4.0631 C   0  0  0  0  0  0
   -2.0255   -3.1324    2.7321 C   0  0  2  0  0  0
   -0.4918   -2.8905    2.7518 C   0  0  0  0  0  0
   -0.0083   -2.2844    1.4157 C   0  0  0  0  0  0
   -0.7321   -0.9358    1.1600 C   0  0  2  0  0  0
   -2.2324   -1.2908    0.9845 C   0  0  0  0  0  0
   -2.7902   -1.8481    2.3112 C   0  0  0  0  0  0
   -0.1523   -0.1057   -0.0401 C   0  0  2  0  0  0
    1.3143   -0.0145   -0.0160 N   0  0  0  0  0  0
    2.1701   -0.6947   -0.8041 C   0  0  0  0  0  0
    1.8015   -1.4891   -1.6717 O   0  0  0  0  0  0
    3.6391   -0.4044   -0.5951 C   0  0  0  0  0  0
    4.1232    0.0907    0.6269 C   0  0  0  0  0  0
    5.4816    0.3485    0.8018 C   0  0  0  0  0  0
    6.3786    0.1158   -0.2382 C   0  0  0  0  0  0
    5.9224   -0.3810   -1.4647 C   0  0  0  0  0  0
    4.5536   -0.6408   -1.6328 C   0  0  0  0  0  0
    6.8400   -0.6166   -2.5151 N   0  0  0  0  0  0
    8.1826   -0.9186   -2.4485 C   0  0  0  0  0  0
    8.6940   -1.0650   -3.6442 N   0  0  0  0  0  0
    7.6345   -0.8493   -4.5185 N   0  0  0  0  0  0
    6.4813   -0.5715   -3.8088 N   0  0  0  0  0  0
   -0.7331    1.3336   -0.1778 C   0  0  0  0  0  0
   -1.3707    1.7952    0.7715 O   0  0  0  0  0  0
   -0.4769    2.0615   -1.3018 N   0  0  0  0  0  0
    0.1566    1.4957   -2.5087 C   0  0  0  0  0  0
   -0.3443    2.3968   -3.6359 C   0  0  2  0  0  0
    0.5823    2.5097   -4.5887 F   0  0  0  0  0  0
   -0.5990    3.7403   -2.9657 C   0  0  1  0  0  0
   -1.6176    4.5339   -3.5543 O   0  0  0  0  0  0
   -2.8722    4.1285   -3.0321 C   0  0  0  0  0  0
   -2.5879    3.5544   -1.6529 C   0  0  0  0  0  0
   -3.4272    3.2341   -0.8137 O   0  0  0  0  0  0
   -1.0660    3.3992   -1.5536 C   0  0  1  0  0  0
   -2.3796   -3.0070    4.8854 H   0  0  0  0  0  0
   -2.0319   -4.6370    4.3144 H   0  0  0  0  0  0
   -3.6084   -3.9195    4.0138 H   0  0  0  0  0  0
   -2.2094   -3.8690    1.9473 H   0  0  0  0  0  0
   -0.2359   -2.2205    3.5744 H   0  0  0  0  0  0
    0.0339   -3.8211    2.9699 H   0  0  0  0  0  0
    1.0684   -2.1327    1.4862 H   0  0  0  0  0  0
   -0.1283   -2.9647    0.5708 H   0  0  0  0  0  0
   -0.5980   -0.3202    2.0529 H   0  0  0  0  0  0
   -2.8053   -0.4021    0.7202 H   0  0  0  0  0  0
   -2.3857   -1.9672    0.1419 H   0  0  0  0  0  0
   -2.7079   -1.0936    3.0957 H   0  0  0  0  0  0
   -3.8579   -2.0557    2.2276 H   0  0  0  0  0  0
   -0.4666   -0.6501   -0.9315 H   0  0  0  0  0  0
    1.6916    0.6321    0.6611 H   0  0  0  0  0  0
    3.4564    0.2758    1.4570 H   0  0  0  0  0  0
    5.8394    0.7297    1.7470 H   0  0  0  0  0  0
    7.4256    0.3302   -0.0806 H   0  0  0  0  0  0
    4.1987   -1.0279   -2.5784 H   0  0  0  0  0  0
    8.6919   -1.0163   -1.5012 H   0  0  0  0  0  0
    1.2397    1.6121   -2.4499 H   0  0  0  0  0  0
   -0.1425    0.4734   -2.7405 H   0  0  0  0  0  0
   -1.2522    1.9903   -4.0843 H   0  0  0  0  0  0
    0.3255    4.3195   -2.9229 H   0  0  0  0  0  0
   -3.5616    4.9715   -2.9843 H   0  0  0  0  0  0
   -3.3102    3.3593   -3.6687 H   0  0  0  0  0  0
   -0.6815    4.1255   -0.8363 H   0  0  0  0  0  0
  1  2  1  0  0  0
  1 35  1  0  0  0
  1 36  1  0  0  0
  1 37  1  0  0  0
  2  3  1  0  0  0
  2  7  1  0  0  0
  2 38  1  0  0  0
  3  4  1  0  0  0
  3 39  1  0  0  0
  3 40  1  0  0  0
  4  5  1  0  0  0
  4 41  1  0  0  0
  4 42  1  0  0  0
  5  6  1  0  0  0
  5  8  1  0  0  0
  5 43  1  0  0  0
  6  7  1  0  0  0
  6 44  1  0  0  0
  6 45  1  0  0  0
  7 46  1  0  0  0
  7 47  1  0  0  0
  8  9  1  0  0  0
  8 23  1  0  0  0
  8 48  1  0  0  0
  9 10  1  0  0  0
  9 49  1  0  0  0
 10 11  2  0  0  0
 10 12  1  0  0  0
 12 13  2  0  0  0
 12 17  1  0  0  0
 13 14  1  0  0  0
 13 50  1  0  0  0
 14 15  2  0  0  0
 14 51  1  0  0  0
 15 16  1  0  0  0
 15 52  1  0  0  0
 16 17  2  0  0  0
 16 18  1  0  0  0
 17 53  1  0  0  0
 18 19  1  0  0  0
 18 22  1  0  0  0
 19 20  2  0  0  0
 19 54  1  0  0  0
 20 21  1  0  0  0
 21 22  2  0  0  0
 23 24  2  0  0  0
 23 25  1  0  0  0
 25 26  1  0  0  0
 25 34  1  0  0  0
 26 27  1  0  0  0
 26 55  1  0  0  0
 26 56  1  0  0  0
 27 28  1  0  0  0
 27 29  1  0  0  0
 27 57  1  0  0  0
 29 30  1  0  0  0
 29 34  1  0  0  0
 29 58  1  0  0  0
 30 31  1  0  0  0
 31 32  1  0  0  0
 31 59  1  0  0  0
 31 60  1  0  0  0
 32 33  2  0  0  0
 32 34  1  0  0  0
 34 61  1  0  0  0
M  END
> <chembl_id>
CHEMBL3648407

> <chembl_pref_name>
None

> <i_m_ct_stereo_status>
1

> <s_m_source_file>
sdf/inactives_sanitized.sdf

> <i_m_source_file_index>
376

> <i_lp_mmshare_version>
49012

> <i_f3d_flags>
0

> <s_epik_input>
TzFbQ0gyXUMoPU8pW0NASF0oW0NASF0xMilOKFtDSDJdW0NAQEhdMkYpQyg9TylbQ0BIXShbQ0BASF0oW0NIMl1bQ0gyXTMpW0NIMl1bQ0gyXVtDQEhdM1tDSDNdKVtOSF1DKD1PKWM0W2NIXVtjSF1bY0hdYyhbY0hdNCktbjVbY0hdbm5uNQ==

> <s_epik_cmdline>
J2VwaWtfcHl0aG9uJywgJy1waHQnLCAnMC41JywgJy1waCcsICc3LjUnLCAnLW50JywgJy1tYScsICcyMDAnLCAnLWltYWUnLCAnPGluZmlsZS5tYWU+JywgJy1vbWFlJywgJzxvdXRmaWxlLm1hZT4n

> <r_lp_tautomer_probability>
1

> <r_epik_Ionization_Penalty>
  0.0000

> <r_epik_Ionization_Penalty_Charging>
  0.0000

> <r_epik_Ionization_Penalty_Neutral>
  0.0000

> <r_epik_State_Penalty>
 -0.0000

> <r_epik_Charging_Adjusted_Penalty>
0

> <i_epik_Tot_Q>
0

> <i_epik_Tot_abs_Q>
0

> <s_lp_Force_Field>
OPLS3e

> <r_lp_Energy>
36.439364

> <b_lp_Chiralities_Consistent>
1

> <s_lp_Variant>
sdf/inactives_sanitized.sdf:376-1

$$$$
sdf/inactives_sanitized.sdf:377
                    3D
 Schrodinger Suite 2020-1.
 60 63  0  0  1  0            999 V2000
   -0.8806    1.1218   -0.1446 C   0  0  0  0  0  0
   -0.0215    0.0866   -0.2125 N   0  0  0  0  0  0
   -0.5188    2.2987   -0.0809 O   0  0  0  0  0  0
    1.4427    0.1691   -0.1788 C   0  0  2  0  0  0
    2.0106   -0.4596   -1.4654 C   0  0  0  0  0  0
    2.0486   -0.5167    1.0789 C   0  0  0  0  0  0
    1.5223    0.0620    2.3911 C   0  0  0  0  0  0
    1.7161   -1.6188   -1.7632 O   0  0  0  0  0  0
    2.8486    0.3042   -2.1856 N   0  0  0  0  0  0
    3.4546   -0.1150   -3.4455 C   0  0  0  0  0  0
    2.4668   -0.3095   -4.5219 C   0  0  0  0  0  0
    1.6915   -0.4622   -5.3671 N   0  0  0  0  0  0
   -2.3462    0.7568   -0.0738 C   0  0  0  0  0  0
   -3.2540    1.6434    0.5167 C   0  0  0  0  0  0
   -4.5986    1.3038    0.6355 C   0  0  0  0  0  0
   -5.0758    0.0749    0.1624 C   0  0  0  0  0  0
   -4.1670   -0.8004   -0.4459 C   0  0  0  0  0  0
   -2.8211   -0.4670   -0.5655 C   0  0  0  0  0  0
   -6.5176   -0.2958    0.3066 C   0  0  0  0  0  0
   -6.8975   -1.6309    0.5113 C   0  0  0  0  0  0
   -8.2388   -1.9795    0.6461 C   0  0  0  0  0  0
   -9.2174   -0.9929    0.5783 C   0  0  0  0  0  0
   -8.8640    0.3377    0.3774 C   0  0  0  0  0  0
   -7.5215    0.6822    0.2427 C   0  0  0  0  0  0
    2.2899    0.9729    3.1193 C   0  0  0  0  0  0
    1.7925    1.5168    4.3014 C   0  0  0  0  0  0
    0.5232    1.1597    4.7558 C   0  0  0  0  0  0
   -0.2704    0.2462    4.0453 C   0  0  0  0  0  0
    0.2609   -0.3075    2.8711 C   0  0  0  0  0  0
   -1.6471   -0.1118    4.5093 C   0  0  0  0  0  0
   -2.6581   -0.4116    3.5834 C   0  0  0  0  0  0
   -3.9458   -0.7287    4.0057 C   0  0  0  0  0  0
   -4.2363   -0.7536    5.3659 C   0  0  0  0  0  0
   -3.2491   -0.4642    6.3034 C   0  0  0  0  0  0
   -1.9626   -0.1449    5.8757 C   0  0  0  0  0  0
   -0.3966   -0.8483   -0.2766 H   0  0  0  0  0  0
    1.7478    1.2177   -0.1438 H   0  0  0  0  0  0
    1.8428   -1.5892    1.0800 H   0  0  0  0  0  0
    3.1385   -0.4485    1.0703 H   0  0  0  0  0  0
    3.0261    1.2531   -1.8888 H   0  0  0  0  0  0
    4.1596    0.6498   -3.7710 H   0  0  0  0  0  0
    4.0211   -1.0387   -3.3151 H   0  0  0  0  0  0
   -2.9230    2.5941    0.9109 H   0  0  0  0  0  0
   -5.2646    2.0022    1.1205 H   0  0  0  0  0  0
   -4.4977   -1.7510   -0.8377 H   0  0  0  0  0  0
   -2.1571   -1.1754   -1.0402 H   0  0  0  0  0  0
   -6.1531   -2.4106    0.5781 H   0  0  0  0  0  0
   -8.5181   -3.0108    0.8046 H   0  0  0  0  0  0
  -10.2584   -1.2613    0.6824 H   0  0  0  0  0  0
   -9.6281    1.0994    0.3241 H   0  0  0  0  0  0
   -7.2696    1.7194    0.0767 H   0  0  0  0  0  0
    3.2676    1.2685    2.7673 H   0  0  0  0  0  0
    2.3852    2.2262    4.8598 H   0  0  0  0  0  0
    0.1544    1.6178    5.6617 H   0  0  0  0  0  0
   -0.3165   -1.0261    2.3082 H   0  0  0  0  0  0
   -2.4583   -0.3879    2.5232 H   0  0  0  0  0  0
   -4.7150   -0.9503    3.2801 H   0  0  0  0  0  0
   -5.2350   -0.9987    5.6964 H   0  0  0  0  0  0
   -3.4799   -0.4867    7.3583 H   0  0  0  0  0  0
   -1.2098    0.0699    6.6198 H   0  0  0  0  0  0
  1  2  1  0  0  0
  1  3  2  0  0  0
  1 13  1  0  0  0
  2  4  1  0  0  0
  2 36  1  0  0  0
  4  5  1  0  0  0
  4  6  1  0  0  0
  4 37  1  0  0  0
  5  8  2  0  0  0
  5  9  1  0  0  0
  6  7  1  0  0  0
  6 38  1  0  0  0
  6 39  1  0  0  0
  7 25  2  0  0  0
  7 29  1  0  0  0
  9 10  1  0  0  0
  9 40  1  0  0  0
 10 11  1  0  0  0
 10 41  1  0  0  0
 10 42  1  0  0  0
 11 12  3  0  0  0
 13 14  2  0  0  0
 13 18  1  0  0  0
 14 15  1  0  0  0
 14 43  1  0  0  0
 15 16  2  0  0  0
 15 44  1  0  0  0
 16 17  1  0  0  0
 16 19  1  0  0  0
 17 18  2  0  0  0
 17 45  1  0  0  0
 18 46  1  0  0  0
 19 20  2  0  0  0
 19 24  1  0  0  0
 20 21  1  0  0  0
 20 47  1  0  0  0
 21 22  2  0  0  0
 21 48  1  0  0  0
 22 23  1  0  0  0
 22 49  1  0  0  0
 23 24  2  0  0  0
 23 50  1  0  0  0
 24 51  1  0  0  0
 25 26  1  0  0  0
 25 52  1  0  0  0
 26 27  2  0  0  0
 26 53  1  0  0  0
 27 28  1  0  0  0
 27 54  1  0  0  0
 28 29  2  0  0  0
 28 30  1  0  0  0
 29 55  1  0  0  0
 30 31  2  0  0  0
 30 35  1  0  0  0
 31 32  1  0  0  0
 31 56  1  0  0  0
 32 33  2  0  0  0
 32 57  1  0  0  0
 33 34  1  0  0  0
 33 58  1  0  0  0
 34 35  2  0  0  0
 34 59  1  0  0  0
 35 60  1  0  0  0
M  END
> <chembl_id>
CHEMBL3804975

> <chembl_pref_name>
None

> <i_m_ct_stereo_status>
1

> <s_m_source_file>
sdf/inactives_sanitized.sdf

> <i_m_source_file_index>
377

> <i_lp_mmshare_version>
49012

> <i_f3d_flags>
0

> <s_epik_input>
W2NIXTFbY0hdW2NIXVtjSF1bY0hdYzEtYyhbY0hdW2NIXTIpW2NIXVtjSF1jMkMoPU8pW05IXVtDQEhdKEMoPU8pW05IXVtDSDJdQyNOKVtDSDJdYzNbY0hdW2NIXVtjSF1jKFtjSF0zKS1jNFtjSF1bY0hdW2NIXVtjSF1bY0hdNA==

> <s_epik_cmdline>
J2VwaWtfcHl0aG9uJywgJy1waHQnLCAnMC41JywgJy1waCcsICc3LjUnLCAnLW50JywgJy1tYScsICcyMDAnLCAnLWltYWUnLCAnPGluZmlsZS5tYWU+JywgJy1vbWFlJywgJzxvdXRmaWxlLm1hZT4n

> <r_lp_tautomer_probability>
1

> <r_epik_Ionization_Penalty>
  0.0000

> <r_epik_Ionization_Penalty_Charging>
  0.0000

> <r_epik_Ionization_Penalty_Neutral>
  0.0000

> <r_epik_State_Penalty>
 -0.0000

> <r_epik_Charging_Adjusted_Penalty>
0

> <i_epik_Tot_Q>
0

> <i_epik_Tot_abs_Q>
0

> <s_lp_Force_Field>
OPLS3e

> <r_lp_Energy>
47.911186

> <b_lp_Chiralities_Consistent>
1

> <s_lp_Variant>
sdf/inactives_sanitized.sdf:377-1

$$$$
sdf/inactives_sanitized.sdf:378
                    3D
 Schrodinger Suite 2020-1.
 62 64  0  0  1  0            999 V2000
   -2.9071   -0.5821    1.8252 C   0  0  0  0  0  0
   -2.8228    0.6832    1.2562 N   0  0  0  0  0  0
   -2.6192   -1.6519    1.2818 O   0  0  0  0  0  0
   -2.3740    0.8790   -0.1323 C   0  0  2  0  0  0
   -0.8468    1.0971   -0.2061 C   0  0  0  0  0  0
   -3.2143    2.0037   -0.7938 C   0  0  0  0  0  0
   -4.7043    1.7196   -0.9036 C   0  0  0  0  0  0
   -0.3930    2.2288   -0.3790 O   0  0  0  0  0  0
   -0.0842    0.0024   -0.0358 N   0  0  0  0  0  0
    1.3810   -0.0223   -0.0099 C   0  0  2  0  0  0
    1.9889    0.6676   -1.1654 C   0  0  0  0  0  0
    2.4664    1.2071   -2.0713 N   0  0  0  0  0  0
   -5.1991    0.9329   -1.9654 C   0  0  0  0  0  0
   -6.5447    0.5920   -2.0091 C   0  0  0  0  0  0
   -7.4030    0.9977   -0.9947 C   0  0  0  0  0  0
   -6.9222    1.7379    0.0782 C   0  0  0  0  0  0
   -5.5804    2.0899    0.1396 C   0  0  0  0  0  0
   -3.3640   -0.4564    3.0851 O   0  0  0  0  0  0
   -3.5998   -1.6027    3.8919 C   0  0  0  0  0  0
   -3.9863   -1.1671    5.2917 C   0  0  0  0  0  0
   -5.3263   -0.9206    5.5992 C   0  0  0  0  0  0
   -5.6797   -0.5245    6.8866 C   0  0  0  0  0  0
   -4.6924   -0.3798    7.8595 C   0  0  0  0  0  0
   -3.3543   -0.6244    7.5567 C   0  0  0  0  0  0
   -2.9998   -1.0163    6.2688 C   0  0  0  0  0  0
    1.9213   -1.4566    0.1197 C   0  0  0  0  0  0
    1.3598   -2.0873    1.2648 O   0  0  0  0  0  0
    1.8386   -3.4078    1.4860 C   0  0  0  0  0  0
    1.1961   -3.9786    2.7321 C   0  0  0  0  0  0
    1.7702   -4.9674    3.3989 N   0  0  0  0  0  0
    0.9838   -5.2890    4.4912 N   0  0  0  0  0  0
   -0.0742   -4.4713    4.4493 N   0  0  0  0  0  0
    0.0088   -3.6338    3.3669 C   0  0  0  0  0  0
   -1.1193   -4.5469    5.4696 C   0  0  0  0  0  0
   -0.7486   -3.8469    6.7901 C   0  0  0  0  0  0
    0.3176   -3.1944    6.8630 O   0  5  0  0  0  0
   -1.5755   -3.9638    7.7206 O   0  0  0  0  0  0
   -3.0601    1.4941    1.8084 H   0  0  0  0  0  0
   -2.5905   -0.0181   -0.7188 H   0  0  0  0  0  0
   -3.0884    2.9382   -0.2435 H   0  0  0  0  0  0
   -2.8395    2.2010   -1.7999 H   0  0  0  0  0  0
   -0.5443   -0.8663    0.1988 H   0  0  0  0  0  0
    1.7005    0.5337    0.8735 H   0  0  0  0  0  0
   -4.5346    0.5957   -2.7475 H   0  0  0  0  0  0
   -6.9237    0.0016   -2.8303 H   0  0  0  0  0  0
   -8.4474    0.7250   -1.0339 H   0  0  0  0  0  0
   -7.5923    2.0337    0.8717 H   0  0  0  0  0  0
   -5.2111    2.6476    0.9877 H   0  0  0  0  0  0
   -4.3954   -2.2149    3.4635 H   0  0  0  0  0  0
   -2.7101   -2.2299    3.9417 H   0  0  0  0  0  0
   -6.0911   -1.0353    4.8446 H   0  0  0  0  0  0
   -6.7143   -0.3328    7.1301 H   0  0  0  0  0  0
   -4.9665   -0.0760    8.8591 H   0  0  0  0  0  0
   -2.5948   -0.5137    8.3170 H   0  0  0  0  0  0
   -1.9622   -1.2054    6.0342 H   0  0  0  0  0  0
    1.6772   -2.0295   -0.7773 H   0  0  0  0  0  0
    3.0095   -1.4296    0.2046 H   0  0  0  0  0  0
    1.5832   -4.0279    0.6249 H   0  0  0  0  0  0
    2.9273   -3.4047    1.5711 H   0  0  0  0  0  0
   -0.7480   -2.8936    3.1572 H   0  0  0  0  0  0
   -2.0265   -4.0978    5.0657 H   0  0  0  0  0  0
   -1.3304   -5.6002    5.6616 H   0  0  0  0  0  0
  1  2  1  0  0  0
  1  3  2  0  0  0
  1 18  1  0  0  0
  2  4  1  0  0  0
  2 38  1  0  0  0
  4  5  1  0  0  0
  4  6  1  0  0  0
  4 39  1  0  0  0
  5  8  2  0  0  0
  5  9  1  0  0  0
  6  7  1  0  0  0
  6 40  1  0  0  0
  6 41  1  0  0  0
  7 13  2  0  0  0
  7 17  1  0  0  0
  9 10  1  0  0  0
  9 42  1  0  0  0
 10 11  1  0  0  0
 10 26  1  0  0  0
 10 43  1  0  0  0
 11 12  3  0  0  0
 13 14  1  0  0  0
 13 44  1  0  0  0
 14 15  2  0  0  0
 14 45  1  0  0  0
 15 16  1  0  0  0
 15 46  1  0  0  0
 16 17  2  0  0  0
 16 47  1  0  0  0
 17 48  1  0  0  0
 18 19  1  0  0  0
 19 20  1  0  0  0
 19 49  1  0  0  0
 19 50  1  0  0  0
 20 21  2  0  0  0
 20 25  1  0  0  0
 21 22  1  0  0  0
 21 51  1  0  0  0
 22 23  2  0  0  0
 22 52  1  0  0  0
 23 24  1  0  0  0
 23 53  1  0  0  0
 24 25  2  0  0  0
 24 54  1  0  0  0
 25 55  1  0  0  0
 26 27  1  0  0  0
 26 56  1  0  0  0
 26 57  1  0  0  0
 27 28  1  0  0  0
 28 29  1  0  0  0
 28 58  1  0  0  0
 28 59  1  0  0  0
 29 30  1  0  0  0
 29 33  2  0  0  0
 30 31  2  0  0  0
 31 32  1  0  0  0
 32 33  1  0  0  0
 32 34  1  0  0  0
 33 60  1  0  0  0
 34 35  1  0  0  0
 34 61  1  0  0  0
 34 62  1  0  0  0
 35 36  1  0  0  0
 35 37  2  0  0  0
M  CHG  1  36  -1
M  END
> <chembl_id>
CHEMBL3806231

> <chembl_pref_name>
None

> <i_m_ct_stereo_status>
1

> <s_m_source_file>
sdf/inactives_sanitized.sdf

> <i_m_source_file_index>
378

> <i_lp_mmshare_version>
49012

> <i_f3d_flags>
0

> <s_epik_input>
W2NIXTFbY0hdW2NIXVtjSF1bY0hdYzFbQ0gyXU9DKD1PKVtOSF1bQ0BASF0oW0NIMl1jMltjSF1bY0hdW2NIXVtjSF1bY0hdMilDKD1PKVtOSF1bQ0BIXShDI04pW0NIMl1PW0NIMl1jM25ubihbY0hdMylbQ0gyXUMoPU8pW09IXQ==

> <s_epik_cmdline>
J2VwaWtfcHl0aG9uJywgJy1waHQnLCAnMC41JywgJy1waCcsICc3LjUnLCAnLW50JywgJy1tYScsICcyMDAnLCAnLWltYWUnLCAnPGluZmlsZS5tYWU+JywgJy1vbWFlJywgJzxvdXRmaWxlLm1hZT4n

> <r_lp_tautomer_probability>
1

> <r_epik_Ionization_Penalty>
  0.0000

> <r_epik_Ionization_Penalty_Charging>
  0.0000

> <r_epik_Ionization_Penalty_Neutral>
  0.0000

> <r_epik_State_Penalty>
 -0.0000

> <r_epik_Charging_Adjusted_Penalty>
8.41733936262384e-06

> <i_epik_Tot_Q>
-1

> <i_epik_Tot_abs_Q>
1

> <s_epik_Chemistry_Notes>
This compound has an ester and may undergo hydrolysis at high or low pH.

> <s_lp_Force_Field>
OPLS3e

> <r_lp_Energy>
23.853648

> <b_lp_Chiralities_Consistent>
1

> <s_lp_Variant>
sdf/inactives_sanitized.sdf:378-1

$$$$
sdf/inactives_sanitized.sdf:379
                    3D
 Schrodinger Suite 2020-1.
 54 56  0  0  1  0            999 V2000
   -6.6404    0.3465    0.0886 C   0  0  0  0  0  0
   -7.5168   -0.0897   -0.8007 N   0  0  0  0  0  0
   -8.6561    0.3002   -0.2954 C   0  0  0  0  0  0
   -8.5238    0.9644    0.8785 O   0  0  0  0  0  0
   -7.1531    0.9865    1.1226 N   0  0  0  0  0  0
   -9.9827    0.0959   -0.8527 C   0  0  0  0  0  0
  -11.4051    0.6957   -0.0439 S   0  0  0  0  0  0
  -12.4291    0.0644   -1.2912 C   0  0  0  0  0  0
  -11.7031   -0.5781   -2.2813 C   0  0  0  0  0  0
  -10.3267   -0.5604   -2.0338 C   0  0  0  0  0  0
   -4.2582    0.6434    0.8744 C   0  0  0  0  0  0
   -5.1584    0.1287   -0.0679 C   0  0  0  0  0  0
   -4.6530   -0.5977   -1.1545 C   0  0  0  0  0  0
   -3.2831   -0.7988   -1.2994 C   0  0  0  0  0  0
   -2.3871   -0.2656   -0.3671 C   0  0  0  0  0  0
   -2.8884    0.4440    0.7311 C   0  0  0  0  0  0
   -0.9038   -0.5215   -0.5214 C   0  0  0  0  0  0
   -0.0137    0.4940   -0.2951 N   0  0  0  0  0  0
   -0.5431   -1.6609   -0.8262 O   0  0  0  0  0  0
    1.4629    0.2987   -0.2406 C   0  0  2  0  0  0
    2.0981   -0.0989   -1.6046 C   0  0  0  0  0  0
    1.8692   -0.6197    0.9558 C   0  0  0  0  0  0
    1.5251    0.1997   -2.6538 O   0  0  0  0  0  0
    3.2902   -0.7196   -1.5792 N   0  0  0  0  0  0
    4.0456   -1.0917   -2.7715 C   0  0  0  0  0  0
    4.5238    0.0745   -3.5355 C   0  0  0  0  0  0
    4.8999    0.9900   -4.1351 N   0  0  0  0  0  0
   -0.4040    1.9117   -0.3156 C   0  0  0  0  0  0
    1.3522   -0.1611    2.3405 C   0  0  0  0  0  0
    1.8673    1.2426    2.7270 C   0  0  0  0  0  0
    1.6594   -1.2181    3.4232 C   0  0  0  0  0  0
  -13.4999    0.1945   -1.2364 H   0  0  0  0  0  0
  -12.1505   -1.0417   -3.1481 H   0  0  0  0  0  0
   -9.6021   -1.0125   -2.6954 H   0  0  0  0  0  0
   -4.6123    1.1994    1.7303 H   0  0  0  0  0  0
   -5.3178   -1.0162   -1.8961 H   0  0  0  0  0  0
   -2.9245   -1.3676   -2.1460 H   0  0  0  0  0  0
   -2.2233    0.8389    1.4860 H   0  0  0  0  0  0
    1.9086    1.2727   -0.0360 H   0  0  0  0  0  0
    1.5240   -1.6357    0.7627 H   0  0  0  0  0  0
    2.9559   -0.6881    1.0167 H   0  0  0  0  0  0
    3.7321   -0.8945   -0.6883 H   0  0  0  0  0  0
    4.9156   -1.6756   -2.4709 H   0  0  0  0  0  0
    3.4471   -1.7246   -3.4291 H   0  0  0  0  0  0
   -1.4130    2.0808   -0.6913 H   0  0  0  0  0  0
    0.2642    2.4783   -0.9655 H   0  0  0  0  0  0
   -0.3342    2.3358    0.6861 H   0  0  0  0  0  0
    0.2646   -0.1002    2.2858 H   0  0  0  0  0  0
    2.2394    1.2895    3.7502 H   0  0  0  0  0  0
    1.0676    1.9794    2.6493 H   0  0  0  0  0  0
    2.6791    1.5739    2.0795 H   0  0  0  0  0  0
    2.0819   -2.1290    2.9980 H   0  0  0  0  0  0
    0.7494   -1.5055    3.9507 H   0  0  0  0  0  0
    2.3686   -0.8646    4.1714 H   0  0  0  0  0  0
  1  5  2  0  0  0
  1 12  1  0  0  0
  1  2  1  0  0  0
  2  3  2  0  0  0
  3  4  1  0  0  0
  3  6  1  0  0  0
  4  5  1  0  0  0
  6 10  2  0  0  0
  6  7  1  0  0  0
  7  8  1  0  0  0
  8  9  2  0  0  0
  8 32  1  0  0  0
  9 10  1  0  0  0
  9 33  1  0  0  0
 10 34  1  0  0  0
 11 16  2  0  0  0
 11 12  1  0  0  0
 11 35  1  0  0  0
 12 13  2  0  0  0
 13 14  1  0  0  0
 13 36  1  0  0  0
 14 15  2  0  0  0
 14 37  1  0  0  0
 15 16  1  0  0  0
 15 17  1  0  0  0
 16 38  1  0  0  0
 17 18  1  0  0  0
 17 19  2  0  0  0
 18 20  1  0  0  0
 18 28  1  0  0  0
 20 21  1  0  0  0
 20 22  1  0  0  0
 20 39  1  0  0  0
 21 23  2  0  0  0
 21 24  1  0  0  0
 22 29  1  0  0  0
 22 40  1  0  0  0
 22 41  1  0  0  0
 24 25  1  0  0  0
 24 42  1  0  0  0
 25 26  1  0  0  0
 25 43  1  0  0  0
 25 44  1  0  0  0
 26 27  3  0  0  0
 28 45  1  0  0  0
 28 46  1  0  0  0
 28 47  1  0  0  0
 29 30  1  0  0  0
 29 31  1  0  0  0
 29 48  1  0  0  0
 30 49  1  0  0  0
 30 50  1  0  0  0
 30 51  1  0  0  0
 31 52  1  0  0  0
 31 53  1  0  0  0
 31 54  1  0  0  0
M  END
> <chembl_id>
CHEMBL1651360

> <chembl_pref_name>
None

> <i_m_ct_stereo_status>
1

> <s_m_source_file>
sdf/inactives_sanitized.sdf

> <i_m_source_file_index>
379

> <i_lp_mmshare_version>
49012

> <i_f3d_flags>
0

> <s_epik_input>
W2NIXTFbY0hdW2NIXXNjMS1jKG9uMiluYzItYzNbY0hdW2NIXWMoW2NIXVtjSF0zKUMoPU8pTihbQ0gzXSlbQ0BASF0oW0NIMl1bQ0hdKFtDSDNdKVtDSDNdKUMoPU8pW05IXVtDSDJdQyNO

> <s_epik_cmdline>
J2VwaWtfcHl0aG9uJywgJy1waHQnLCAnMC41JywgJy1waCcsICc3LjUnLCAnLW50JywgJy1tYScsICcyMDAnLCAnLWltYWUnLCAnPGluZmlsZS5tYWU+JywgJy1vbWFlJywgJzxvdXRmaWxlLm1hZT4n

> <r_lp_tautomer_probability>
1

> <r_epik_Ionization_Penalty>
  0.0000

> <r_epik_Ionization_Penalty_Charging>
  0.0000

> <r_epik_Ionization_Penalty_Neutral>
  0.0000

> <r_epik_State_Penalty>
 -0.0000

> <r_epik_Charging_Adjusted_Penalty>
0

> <i_epik_Tot_Q>
0

> <i_epik_Tot_abs_Q>
0

> <s_lp_Force_Field>
OPLS3e

> <r_lp_Energy>
35.947539

> <b_lp_Chiralities_Consistent>
1

> <s_lp_Variant>
sdf/inactives_sanitized.sdf:379-1

$$$$
sdf/inactives_sanitized.sdf:380
                    3D
 Schrodinger Suite 2020-1.
 45 45  0  0  1  0            999 V2000
    3.5155    1.9810    1.2174 O   0  0  0  0  0  0
    2.1997    1.3857    1.4724 S   0  0  0  0  0  0
    1.2431    2.0822    2.3390 O   0  0  0  0  0  0
   -0.0426    0.4682   -0.1104 C   0  0  2  0  0  0
   -1.1330    1.5583   -0.0060 C   0  0  0  0  0  0
   -1.7087    1.7102    1.1977 N   0  0  0  0  0  0
   -1.4022    2.2525   -0.9878 O   0  0  0  0  0  0
   -2.6814    2.7510    1.5114 C   0  0  0  0  0  0
   -2.1000    4.1048    1.4736 C   0  0  0  0  0  0
   -1.6434    5.1677    1.4443 N   0  0  0  0  0  0
    1.3720    1.0949   -0.2059 C   0  0  0  0  0  0
   -0.2920   -0.4412   -1.2344 N   0  0  0  0  0  0
   -1.3046   -1.3267   -1.3321 C   0  0  0  0  0  0
   -1.3644   -2.1542   -2.6013 C   0  0  0  0  0  0
    2.4714   -0.3630    2.1570 C   0  0  0  0  0  0
    3.4183   -0.3723    3.3781 C   0  0  0  0  0  0
   -2.1395   -1.4814   -0.4373 O   0  0  0  0  0  0
   -2.2989   -3.1964   -2.7067 C   0  0  0  0  0  0
   -2.3728   -3.9698   -3.8621 C   0  0  0  0  0  0
   -1.5131   -3.7082   -4.9244 C   0  0  0  0  0  0
   -0.5815   -2.6780   -4.8420 C   0  0  0  0  0  0
   -0.5070   -1.9035   -3.6873 C   0  0  0  0  0  0
    3.8378   -1.8098    3.7327 C   0  0  0  0  0  0
    2.8287    0.3497    4.6044 C   0  0  0  0  0  0
   -0.0687   -0.1524    0.7869 H   0  0  0  0  0  0
   -1.4017    1.1296    1.9647 H   0  0  0  0  0  0
   -3.5308    2.7094    0.8277 H   0  0  0  0  0  0
   -3.0698    2.5805    2.5155 H   0  0  0  0  0  0
    1.3675    2.0490   -0.7359 H   0  0  0  0  0  0
    2.0518    0.4533   -0.7677 H   0  0  0  0  0  0
    0.3519   -0.3596   -2.0071 H   0  0  0  0  0  0
    1.4976   -0.7885    2.3987 H   0  0  0  0  0  0
    2.8886   -0.9526    1.3404 H   0  0  0  0  0  0
    4.3270    0.1620    3.0964 H   0  0  0  0  0  0
   -2.9774   -3.4194   -1.8954 H   0  0  0  0  0  0
   -3.0949   -4.7699   -3.9337 H   0  0  0  0  0  0
   -1.5705   -4.3085   -5.8206 H   0  0  0  0  0  0
    0.0811   -2.4794   -5.6716 H   0  0  0  0  0  0
    0.2250   -1.1095   -3.6566 H   0  0  0  0  0  0
    2.9800   -2.4135    4.0318 H   0  0  0  0  0  0
    4.5543   -1.8219    4.5550 H   0  0  0  0  0  0
    4.3121   -2.3052    2.8847 H   0  0  0  0  0  0
    1.8774   -0.0897    4.9074 H   0  0  0  0  0  0
    2.6605    1.4084    4.4093 H   0  0  0  0  0  0
    3.5052    0.2926    5.4580 H   0  0  0  0  0  0
  1  2  2  0  0  0
  2 11  1  0  0  0
  2 15  1  0  0  0
  2  3  2  0  0  0
  4  5  1  0  0  0
  4 11  1  0  0  0
  4 12  1  0  0  0
  4 25  1  0  0  0
  5  6  1  0  0  0
  5  7  2  0  0  0
  6  8  1  0  0  0
  6 26  1  0  0  0
  8  9  1  0  0  0
  8 27  1  0  0  0
  8 28  1  0  0  0
  9 10  3  0  0  0
 11 29  1  0  0  0
 11 30  1  0  0  0
 12 13  1  0  0  0
 12 31  1  0  0  0
 13 14  1  0  0  0
 13 17  2  0  0  0
 14 18  2  0  0  0
 14 22  1  0  0  0
 15 16  1  0  0  0
 15 32  1  0  0  0
 15 33  1  0  0  0
 16 23  1  0  0  0
 16 24  1  0  0  0
 16 34  1  0  0  0
 18 19  1  0  0  0
 18 35  1  0  0  0
 19 20  2  0  0  0
 19 36  1  0  0  0
 20 21  1  0  0  0
 20 37  1  0  0  0
 21 22  2  0  0  0
 21 38  1  0  0  0
 22 39  1  0  0  0
 23 40  1  0  0  0
 23 41  1  0  0  0
 23 42  1  0  0  0
 24 43  1  0  0  0
 24 44  1  0  0  0
 24 45  1  0  0  0
M  END
> <chembl_id>
CHEMBL2153172

> <chembl_pref_name>
None

> <i_m_ct_stereo_status>
1

> <s_m_source_file>
sdf/inactives_sanitized.sdf

> <i_m_source_file_index>
380

> <i_lp_mmshare_version>
49012

> <i_f3d_flags>
0

> <s_epik_input>
TiNDW0NIMl1bTkhdQyg9TylbQ0BIXShbQ0gyXVMoPU8pKD1PKVtDSDJdW0NIXShbQ0gzXSlbQ0gzXSlbTkhdQyg9TyljMVtjSF1bY0hdW2NIXVtjSF1bY0hdMQ==

> <s_epik_cmdline>
J2VwaWtfcHl0aG9uJywgJy1waHQnLCAnMC41JywgJy1waCcsICc3LjUnLCAnLW50JywgJy1tYScsICcyMDAnLCAnLWltYWUnLCAnPGluZmlsZS5tYWU+JywgJy1vbWFlJywgJzxvdXRmaWxlLm1hZT4n

> <r_lp_tautomer_probability>
1

> <r_epik_Ionization_Penalty>
  0.0001

> <r_epik_Ionization_Penalty_Charging>
  0.0000

> <r_epik_Ionization_Penalty_Neutral>
  0.0001

> <r_epik_State_Penalty>
 -0.0000

> <r_epik_Charging_Adjusted_Penalty>
0

> <i_epik_Tot_Q>
0

> <i_epik_Tot_abs_Q>
0

> <s_lp_Force_Field>
OPLS3e

> <r_lp_Energy>
8.330396

> <b_lp_Chiralities_Consistent>
1

> <s_lp_Variant>
sdf/inactives_sanitized.sdf:380-1

$$$$
sdf/inactives_sanitized.sdf:381
                    3D
 Schrodinger Suite 2020-1.
 53 56  0  0  1  0            999 V2000
    0.5439    2.4913   -4.5853 F   0  0  0  0  0  0
   -0.3797    2.3751   -3.6303 C   0  0  1  0  0  0
    0.1305    1.4830   -2.4999 C   0  0  0  0  0  0
   -0.5064    2.0493   -1.2950 N   0  0  0  0  0  0
   -1.1093    3.3796   -1.5534 C   0  0  1  0  0  0
   -0.6417    3.7194   -2.9646 C   0  0  2  0  0  0
   -1.6613    4.5099   -3.5557 O   0  0  0  0  0  0
   -2.9166    4.1093   -3.0312 C   0  0  0  0  0  0
   -2.6325    3.5167   -1.6597 C   0  0  0  0  0  0
   -3.4728    3.1698   -0.8321 O   0  0  0  0  0  0
   -0.7587    1.3240   -0.1686 C   0  0  0  0  0  0
   -1.4010    1.7856    0.7775 O   0  0  0  0  0  0
   -0.1670   -0.1102   -0.0225 C   0  0  1  0  0  0
    1.2997   -0.0170   -0.0331 N   0  0  0  0  0  0
    2.1401   -0.7342   -0.8051 C   0  0  0  0  0  0
    1.7506   -1.5896   -1.6031 O   0  0  0  0  0  0
    3.6175   -0.4509   -0.6333 C   0  0  0  0  0  0
    4.5608   -1.3714   -1.1136 C   0  0  0  0  0  0
    5.9242   -1.1281   -0.9713 C   0  0  0  0  0  0
    6.3562    0.0395   -0.3496 C   0  0  0  0  0  0
    5.4362    0.9669    0.1298 C   0  0  0  0  0  0
    4.0725    0.7248   -0.0119 C   0  0  0  0  0  0
   -0.7227   -0.9264    1.1987 C   0  0  0  0  0  0
    0.0141   -2.2625    1.4744 C   0  0  0  0  0  0
   -0.4269   -2.8267    2.8425 C   0  0  0  0  0  0
   -1.9611   -3.0407    2.8904 C   0  0  0  0  0  0
   -2.7670   -1.8148    2.3904 C   0  0  0  0  0  0
   -2.2166   -1.3097    1.0406 C   0  0  0  0  0  0
   -1.2855    1.9602   -4.0753 H   0  0  0  0  0  0
   -0.1608    0.4569   -2.7256 H   0  0  0  0  0  0
    1.2126    1.6093   -2.4434 H   0  0  0  0  0  0
   -0.7359    4.1130   -0.8377 H   0  0  0  0  0  0
    0.2810    4.3015   -2.9206 H   0  0  0  0  0  0
   -3.5982    4.9579   -2.9702 H   0  0  0  0  0  0
   -3.3649    3.3523   -3.6752 H   0  0  0  0  0  0
   -0.4974   -0.6646   -0.9022 H   0  0  0  0  0  0
    1.6901    0.6597    0.6060 H   0  0  0  0  0  0
    4.2474   -2.2846   -1.5997 H   0  0  0  0  0  0
    6.6441   -1.8427   -1.3427 H   0  0  0  0  0  0
    7.4141    0.2281   -0.2404 H   0  0  0  0  0  0
    5.7796    1.8724    0.6081 H   0  0  0  0  0  0
    3.3814    1.4658    0.3638 H   0  0  0  0  0  0
   -0.5880   -0.2917    2.0781 H   0  0  0  0  0  0
   -0.1211   -2.9698    0.6542 H   0  0  0  0  0  0
    1.0910   -2.1026    1.5168 H   0  0  0  0  0  0
    0.0868   -3.7676    3.0428 H   0  0  0  0  0  0
   -0.1289   -2.1410    3.6373 H   0  0  0  0  0  0
   -2.2136   -3.9025    2.2706 H   0  0  0  0  0  0
   -2.2691   -3.3004    3.9038 H   0  0  0  0  0  0
   -3.8209   -2.0775    2.2914 H   0  0  0  0  0  0
   -2.7187   -1.0152    3.1314 H   0  0  0  0  0  0
   -2.3636   -2.0213    0.2262 H   0  0  0  0  0  0
   -2.8019   -0.4393    0.7445 H   0  0  0  0  0  0
  1  2  1  0  0  0
  2  3  1  0  0  0
  2  6  1  0  0  0
  2 29  1  0  0  0
  3  4  1  0  0  0
  3 30  1  0  0  0
  3 31  1  0  0  0
  4  5  1  0  0  0
  4 11  1  0  0  0
  5  6  1  0  0  0
  5  9  1  0  0  0
  5 32  1  0  0  0
  6  7  1  0  0  0
  6 33  1  0  0  0
  7  8  1  0  0  0
  8  9  1  0  0  0
  8 34  1  0  0  0
  8 35  1  0  0  0
  9 10  2  0  0  0
 11 12  2  0  0  0
 11 13  1  0  0  0
 13 14  1  0  0  0
 13 23  1  0  0  0
 13 36  1  0  0  0
 14 15  1  0  0  0
 14 37  1  0  0  0
 15 16  2  0  0  0
 15 17  1  0  0  0
 17 18  2  0  0  0
 17 22  1  0  0  0
 18 19  1  0  0  0
 18 38  1  0  0  0
 19 20  2  0  0  0
 19 39  1  0  0  0
 20 21  1  0  0  0
 20 40  1  0  0  0
 21 22  2  0  0  0
 21 41  1  0  0  0
 22 42  1  0  0  0
 23 24  1  0  0  0
 23 28  1  0  0  0
 23 43  1  0  0  0
 24 25  1  0  0  0
 24 44  1  0  0  0
 24 45  1  0  0  0
 25 26  1  0  0  0
 25 46  1  0  0  0
 25 47  1  0  0  0
 26 27  1  0  0  0
 26 48  1  0  0  0
 26 49  1  0  0  0
 27 28  1  0  0  0
 27 50  1  0  0  0
 27 51  1  0  0  0
 28 52  1  0  0  0
 28 53  1  0  0  0
M  END
> <chembl_id>
CHEMBL3648397

> <chembl_pref_name>
None

> <i_m_ct_stereo_status>
1

> <s_m_source_file>
sdf/inactives_sanitized.sdf

> <i_m_source_file_index>
381

> <i_lp_mmshare_version>
49012

> <i_f3d_flags>
0

> <s_epik_input>
Tz1DMVtDSDJdT1tDQEBIXShbQ0BASF0xMilbQ0BASF0oRilbQ0gyXU4yQyg9TylbQ0BIXShbQ0hdM1tDSDJdW0NIMl1bQ0gyXVtDSDJdW0NIMl0zKVtOSF1DKD1PKWM0W2NIXVtjSF1bY0hdW2NIXVtjSF00

> <s_epik_cmdline>
J2VwaWtfcHl0aG9uJywgJy1waHQnLCAnMC41JywgJy1waCcsICc3LjUnLCAnLW50JywgJy1tYScsICcyMDAnLCAnLWltYWUnLCAnPGluZmlsZS5tYWU+JywgJy1vbWFlJywgJzxvdXRmaWxlLm1hZT4n

> <r_lp_tautomer_probability>
1

> <r_epik_Ionization_Penalty>
  0.0000

> <r_epik_Ionization_Penalty_Charging>
  0.0000

> <r_epik_Ionization_Penalty_Neutral>
  0.0000

> <r_epik_State_Penalty>
 -0.0000

> <r_epik_Charging_Adjusted_Penalty>
0

> <i_epik_Tot_Q>
0

> <i_epik_Tot_abs_Q>
0

> <s_lp_Force_Field>
OPLS3e

> <r_lp_Energy>
27.986924

> <b_lp_Chiralities_Consistent>
1

> <s_lp_Variant>
sdf/inactives_sanitized.sdf:381-1

$$$$
sdf/inactives_sanitized.sdf:382
                    3D
 Schrodinger Suite 2020-1.
 64 65  0  0  1  0            999 V2000
   -5.9341    3.6619    7.1083 C   0  0  0  0  0  0
   -6.2654    2.3095    7.1592 C   0  0  0  0  0  0
   -5.5764    1.4001    6.3607 C   0  0  0  0  0  0
   -4.5604    1.8452    5.5113 C   0  0  0  0  0  0
   -4.2283    3.2037    5.4707 C   0  0  0  0  0  0
   -4.9182    4.1129    6.2686 C   0  0  0  0  0  0
   -3.8098    0.8368    4.6532 C   0  0  0  0  0  0
   -3.6407    1.3319    3.3288 O   0  0  0  0  0  0
   -2.9777    0.6136    2.4030 C   0  0  0  0  0  0
   -2.9466    1.3356    1.2156 N   0  0  0  0  0  0
   -2.4743   -0.4960    2.5992 O   0  0  0  0  0  0
   -2.2953    0.7957    0.0110 C   0  0  2  0  0  0
   -0.7710    1.0329    0.0311 C   0  0  0  0  0  0
   -0.3341    2.1686    0.2257 O   0  0  0  0  0  0
   -0.0036   -0.0511   -0.1703 N   0  0  0  0  0  0
    1.4604   -0.0757   -0.0845 C   0  0  2  0  0  0
    2.0542   -0.7502   -1.3390 C   0  0  0  0  0  0
    3.2117   -0.2582   -1.7900 N   0  0  0  0  0  0
    1.4935   -1.7135   -1.8620 O   0  0  0  0  0  0
   -2.9640    1.3760   -1.2595 C   0  0  0  0  0  0
    1.8743   -0.8351    1.2030 C   0  0  0  0  0  0
   -4.4363    1.0354   -1.4278 C   0  0  0  0  0  0
   -4.8158   -0.2087   -1.9749 C   0  0  0  0  0  0
   -6.1577   -0.5602   -2.0370 C   0  0  0  0  0  0
   -7.1295    0.2966   -1.5353 C   0  0  0  0  0  0
   -6.7682    1.5069   -0.9570 C   0  0  0  0  0  0
   -5.4317    1.8770   -0.8858 C   0  0  0  0  0  0
    1.4877   -0.1080    2.5052 C   0  0  0  0  0  0
    1.9843   -0.8295    3.7647 C   0  0  0  0  0  0
    1.3977   -0.2459    4.9784 N   0  0  0  0  0  0
    1.7834   -0.5050    6.2408 C   0  0  0  0  0  0
    2.7892   -1.3525    6.5091 N   0  0  0  0  0  0
    1.1456    0.0960    7.2544 N   0  3  0  0  0  0
   -6.4693    4.3673    7.7269 H   0  0  0  0  0  0
   -7.0525    1.9681    7.8152 H   0  0  0  0  0  0
   -5.8350    0.3518    6.4030 H   0  0  0  0  0  0
   -3.4388    3.5565    4.8231 H   0  0  0  0  0  0
   -4.6664    5.1629    6.2374 H   0  0  0  0  0  0
   -2.8405    0.6341    5.1115 H   0  0  0  0  0  0
   -4.3637   -0.1033    4.6183 H   0  0  0  0  0  0
   -3.3595    2.2560    1.1775 H   0  0  0  0  0  0
   -2.4770   -0.2824   -0.0355 H   0  0  0  0  0  0
   -0.4444   -0.9418   -0.3498 H   0  0  0  0  0  0
    1.8510    0.9433   -0.0337 H   0  0  0  0  0  0
    3.6485    0.5266   -1.3291 H   0  0  0  0  0  0
    3.6537   -0.6680   -2.6001 H   0  0  0  0  0  0
   -2.8635    2.4632   -1.2727 H   0  0  0  0  0  0
   -2.4387    1.0209   -2.1483 H   0  0  0  0  0  0
    1.4289   -1.8322    1.2058 H   0  0  0  0  0  0
    2.9550   -0.9906    1.2089 H   0  0  0  0  0  0
   -4.0648   -0.8896   -2.3485 H   0  0  0  0  0  0
   -6.4461   -1.5073   -2.4688 H   0  0  0  0  0  0
   -8.1708    0.0141   -1.5837 H   0  0  0  0  0  0
   -7.5290    2.1587   -0.5531 H   0  0  0  0  0  0
   -5.1587    2.8104   -0.4156 H   0  0  0  0  0  0
    1.9779    0.8657    2.4635 H   0  0  0  0  0  0
    0.4183    0.0943    2.5742 H   0  0  0  0  0  0
    1.8808   -1.9135    3.7079 H   0  0  0  0  0  0
    3.0505   -0.6200    3.8569 H   0  0  0  0  0  0
    0.6121    0.3737    4.8381 H   0  0  0  0  0  0
    3.0622   -1.5333    7.4647 H   0  0  0  0  0  0
    3.2758   -1.8137    5.7536 H   0  0  0  0  0  0
    1.4209   -0.0876    8.2088 H   0  0  0  0  0  0
    0.3861    0.7359    7.0689 H   0  0  0  0  0  0
  1  2  2  0  0  0
  1  6  1  0  0  0
  1 34  1  0  0  0
  2  3  1  0  0  0
  2 35  1  0  0  0
  3  4  2  0  0  0
  3 36  1  0  0  0
  4  5  1  0  0  0
  4  7  1  0  0  0
  5  6  2  0  0  0
  5 37  1  0  0  0
  6 38  1  0  0  0
  7  8  1  0  0  0
  7 39  1  0  0  0
  7 40  1  0  0  0
  8  9  1  0  0  0
  9 10  1  0  0  0
  9 11  2  0  0  0
 10 12  1  0  0  0
 10 41  1  0  0  0
 12 13  1  0  0  0
 12 20  1  0  0  0
 12 42  1  0  0  0
 13 14  2  0  0  0
 13 15  1  0  0  0
 15 16  1  0  0  0
 15 43  1  0  0  0
 16 17  1  0  0  0
 16 21  1  0  0  0
 16 44  1  0  0  0
 17 18  1  0  0  0
 17 19  2  0  0  0
 18 45  1  0  0  0
 18 46  1  0  0  0
 20 22  1  0  0  0
 20 47  1  0  0  0
 20 48  1  0  0  0
 21 28  1  0  0  0
 21 49  1  0  0  0
 21 50  1  0  0  0
 22 23  2  0  0  0
 22 27  1  0  0  0
 23 24  1  0  0  0
 23 51  1  0  0  0
 24 25  2  0  0  0
 24 52  1  0  0  0
 25 26  1  0  0  0
 25 53  1  0  0  0
 26 27  2  0  0  0
 26 54  1  0  0  0
 27 55  1  0  0  0
 28 29  1  0  0  0
 28 56  1  0  0  0
 28 57  1  0  0  0
 29 30  1  0  0  0
 29 58  1  0  0  0
 29 59  1  0  0  0
 30 31  1  0  0  0
 30 60  1  0  0  0
 31 32  1  0  0  0
 31 33  2  0  0  0
 32 61  1  0  0  0
 32 62  1  0  0  0
 33 63  1  0  0  0
 33 64  1  0  0  0
M  CHG  1  33   1
M  END
> <chembl_id>
CHEMBL2381994

> <chembl_pref_name>
None

> <i_m_ct_stereo_status>
1

> <s_m_source_file>
sdf/inactives_sanitized.sdf

> <i_m_source_file_index>
382

> <i_lp_mmshare_version>
49012

> <i_f3d_flags>
0

> <s_epik_input>
W2NIXTFbY0hdW2NIXVtjSF1bY0hdYzFbQ0gyXU9DKD1PKVtOSF1bQ0BASF0oW0NIMl1jMltjSF1bY0hdW2NIXVtjSF1bY0hdMilDKD1PKVtOSF1bQ0BIXShDKD1PKVtOSDJdKVtDSDJdW0NIMl1bQ0gyXVtOSF0vQyhbTkgyXSk9Ti9bSF0=

> <s_epik_cmdline>
J2VwaWtfcHl0aG9uJywgJy1waHQnLCAnMC41JywgJy1waCcsICc3LjUnLCAnLW50JywgJy1tYScsICcyMDAnLCAnLWltYWUnLCAnPGluZmlsZS5tYWU+JywgJy1vbWFlJywgJzxvdXRmaWxlLm1hZT4n

> <r_lp_tautomer_probability>
1

> <r_epik_Ionization_Penalty>
  0.0000

> <r_epik_Ionization_Penalty_Charging>
  0.0000

> <r_epik_Ionization_Penalty_Neutral>
  0.0000

> <r_epik_State_Penalty>
 -0.0000

> <r_epik_Charging_Adjusted_Penalty>
8.83437199821977e-06

> <i_epik_Tot_Q>
1

> <i_epik_Tot_abs_Q>
1

> <s_epik_Chemistry_Notes>
This compound has an ester and may undergo hydrolysis at high or low pH. This compound has an imine and may undergo hydrolysis.

> <s_lp_Force_Field>
OPLS3e

> <r_lp_Energy>
28.454031

> <b_lp_Chiralities_Consistent>
1

> <s_lp_Variant>
sdf/inactives_sanitized.sdf:382-1

$$$$
sdf/inactives_sanitized.sdf:383
                    3D
 Schrodinger Suite 2020-1.
 66 67  0  0  1  0            999 V2000
   -0.5231   -0.4524   -2.3525 C   0  0  0  0  0  0
   -0.5395   -0.8836   -1.0745 N   0  0  0  0  0  0
   -0.0820    0.6541   -2.6751 O   0  0  0  0  0  0
   -0.0308   -0.1507    0.0898 C   0  0  2  0  0  0
    1.5047    0.0156    0.0382 C   0  0  0  0  0  0
    2.2265   -0.9830    0.0166 O   0  0  0  0  0  0
    1.9618    1.2786    0.0549 N   0  0  0  0  0  0
    3.3779    1.6554    0.0666 C   0  0  2  0  0  0
    3.9779    1.5236    1.4839 C   0  0  0  0  0  0
    5.1964    0.9836    1.5732 N   0  0  0  0  0  0
    3.3592    1.9381    2.4636 O   0  0  0  0  0  0
   -0.5190   -0.8475    1.3860 C   0  0  0  0  0  0
    3.5203    3.1033   -0.4651 C   0  0  0  0  0  0
   -0.1485   -0.1541    2.6890 C   0  0  0  0  0  0
    1.0160   -0.5298    3.3928 C   0  0  0  0  0  0
    1.4011    0.1745    4.5256 C   0  0  0  0  0  0
    0.6603    1.2684    4.9547 C   0  0  0  0  0  0
   -0.4672    1.6728    4.2509 C   0  0  0  0  0  0
   -0.8702    0.9803    3.1166 C   0  0  0  0  0  0
    3.1641    3.2549   -1.9562 C   0  0  0  0  0  0
    3.3468    4.6926   -2.4642 C   0  0  0  0  0  0
    2.9743    4.8457   -3.9458 C   0  0  0  0  0  0
    3.1609    6.2329   -4.4054 N   0  3  0  0  0  0
   -1.0937   -1.3934   -3.3955 C   0  0  0  0  0  0
   -1.5086   -2.6934   -3.0725 C   0  0  0  0  0  0
   -2.0294   -3.5366   -4.0500 C   0  0  0  0  0  0
   -2.1552   -3.1154   -5.3837 C   0  0  0  0  0  0
   -1.7334   -1.8137   -5.6989 C   0  0  0  0  0  0
   -1.2130   -0.9681   -4.7235 C   0  0  0  0  0  0
   -2.6850   -3.9802   -6.3827 N   0  0  0  0  0  0
   -2.9730   -3.4722   -7.7244 C   0  0  0  0  0  0
   -3.2925   -5.2577   -6.0096 C   0  0  0  0  0  0
   -0.9104   -1.8015   -0.8788 H   0  0  0  0  0  0
   -0.4894    0.8412    0.0688 H   0  0  0  0  0  0
    1.3017    2.0415    0.0923 H   0  0  0  0  0  0
    3.9176    0.9867   -0.6088 H   0  0  0  0  0  0
    5.6760    0.6607    0.7457 H   0  0  0  0  0  0
    5.6405    0.8866    2.4747 H   0  0  0  0  0  0
   -1.6067   -0.9348    1.3577 H   0  0  0  0  0  0
   -0.1502   -1.8745    1.4230 H   0  0  0  0  0  0
    2.9027    3.7825    0.1262 H   0  0  0  0  0  0
    4.5491    3.4422   -0.3292 H   0  0  0  0  0  0
    1.6134   -1.3626    3.0514 H   0  0  0  0  0  0
    2.2885   -0.1205    5.0660 H   0  0  0  0  0  0
    0.9706    1.8159    5.8325 H   0  0  0  0  0  0
   -1.0266    2.5354    4.5813 H   0  0  0  0  0  0
   -1.7356    1.3143    2.5631 H   0  0  0  0  0  0
    3.7836    2.5789   -2.5467 H   0  0  0  0  0  0
    2.1315    2.9443   -2.1207 H   0  0  0  0  0  0
    2.7377    5.3687   -1.8624 H   0  0  0  0  0  0
    4.3831    4.9989   -2.3141 H   0  0  0  0  0  0
    3.5875    4.1866   -4.5615 H   0  0  0  0  0  0
    1.9338    4.5601   -4.1057 H   0  0  0  0  0  0
    2.9059    6.3043   -5.3805 H   0  0  0  0  0  0
    4.1285    6.4998   -4.2920 H   0  0  0  0  0  0
   -1.4345   -3.0736   -2.0639 H   0  0  0  0  0  0
   -2.3329   -4.5246   -3.7403 H   0  0  0  0  0  0
   -1.8010   -1.4266   -6.7038 H   0  0  0  0  0  0
   -0.9052    0.0254   -5.0181 H   0  0  0  0  0  0
   -2.0886   -3.0156   -8.1697 H   0  0  0  0  0  0
   -3.7520   -2.7102   -7.6781 H   0  0  0  0  0  0
   -3.3153   -4.2597   -8.3969 H   0  0  0  0  0  0
   -4.1776   -5.0872   -5.3956 H   0  0  0  0  0  0
   -2.6000   -5.8685   -5.4302 H   0  0  0  0  0  0
   -3.5969   -5.8372   -6.8817 H   0  0  0  0  0  0
    2.5765    6.8511   -3.8606 H   0  0  0  0  0  0
  1  2  1  0  0  0
  1  3  2  0  0  0
  1 24  1  0  0  0
  2  4  1  0  0  0
  2 33  1  0  0  0
  4  5  1  0  0  0
  4 12  1  0  0  0
  4 34  1  0  0  0
  5  6  2  0  0  0
  5  7  1  0  0  0
  7  8  1  0  0  0
  7 35  1  0  0  0
  8  9  1  0  0  0
  8 13  1  0  0  0
  8 36  1  0  0  0
  9 10  1  0  0  0
  9 11  2  0  0  0
 10 37  1  0  0  0
 10 38  1  0  0  0
 12 14  1  0  0  0
 12 39  1  0  0  0
 12 40  1  0  0  0
 13 20  1  0  0  0
 13 41  1  0  0  0
 13 42  1  0  0  0
 14 15  2  0  0  0
 14 19  1  0  0  0
 15 16  1  0  0  0
 15 43  1  0  0  0
 16 17  2  0  0  0
 16 44  1  0  0  0
 17 18  1  0  0  0
 17 45  1  0  0  0
 18 19  2  0  0  0
 18 46  1  0  0  0
 19 47  1  0  0  0
 20 21  1  0  0  0
 20 48  1  0  0  0
 20 49  1  0  0  0
 21 22  1  0  0  0
 21 50  1  0  0  0
 21 51  1  0  0  0
 22 23  1  0  0  0
 22 52  1  0  0  0
 22 53  1  0  0  0
 23 54  1  0  0  0
 23 55  1  0  0  0
 23 66  1  0  0  0
 24 25  2  0  0  0
 24 29  1  0  0  0
 25 26  1  0  0  0
 25 56  1  0  0  0
 26 27  2  0  0  0
 26 57  1  0  0  0
 27 28  1  0  0  0
 27 30  1  0  0  0
 28 29  2  0  0  0
 28 58  1  0  0  0
 29 59  1  0  0  0
 30 31  1  0  0  0
 30 32  1  0  0  0
 31 60  1  0  0  0
 31 61  1  0  0  0
 31 62  1  0  0  0
 32 63  1  0  0  0
 32 64  1  0  0  0
 32 65  1  0  0  0
M  CHG  1  23   1
M  END
> <chembl_id>
CHEMBL2382067

> <chembl_pref_name>
None

> <i_m_ct_stereo_status>
1

> <s_m_source_file>
sdf/inactives_sanitized.sdf

> <i_m_source_file_index>
383

> <i_lp_mmshare_version>
49012

> <i_f3d_flags>
0

> <s_epik_input>
W2NIXTFbY0hdYyhOKFtDSDNdKVtDSDNdKVtjSF1bY0hdYzFDKD1PKVtOSF1bQ0BASF0oW0NIMl1jMltjSF1bY0hdW2NIXVtjSF1bY0hdMilDKD1PKVtOSF1bQ0BIXShDKD1PKVtOSDJdKVtDSDJdW0NIMl1bQ0gyXVtDSDJdW05IMl0=

> <s_epik_cmdline>
J2VwaWtfcHl0aG9uJywgJy1waHQnLCAnMC41JywgJy1waCcsICc3LjUnLCAnLW50JywgJy1tYScsICcyMDAnLCAnLWltYWUnLCAnPGluZmlsZS5tYWU+JywgJy1vbWFlJywgJzxvdXRmaWxlLm1hZT4n

> <r_lp_tautomer_probability>
1

> <r_epik_Ionization_Penalty>
  0.0016

> <r_epik_Ionization_Penalty_Charging>
  0.0014

> <r_epik_Ionization_Penalty_Neutral>
  0.0002

> <r_epik_State_Penalty>
 -0.0000

> <r_epik_Charging_Adjusted_Penalty>
0.00140340395202934

> <i_epik_Tot_Q>
1

> <i_epik_Tot_abs_Q>
1

> <s_lp_Force_Field>
OPLS3e

> <r_lp_Energy>
43.184307

> <b_lp_Chiralities_Consistent>
1

> <s_lp_Variant>
sdf/inactives_sanitized.sdf:383-1

$$$$
sdf/inactives_sanitized.sdf:384
                    3D
 Schrodinger Suite 2020-1.
 39 41  0  0  1  0            999 V2000
    0.4150   -0.1057   -1.2472 C   0  0  0  0  0  0
    0.0704   -1.0638   -1.9424 O   0  0  0  0  0  0
   -0.4377    0.8796   -0.8501 N   0  0  0  0  0  0
   -0.0446    2.0107    0.0224 C   0  0  0  0  0  0
   -0.3122    3.3112   -0.7691 C   0  0  0  0  0  0
   -1.7854    3.4086   -1.2142 C   0  0  0  0  0  0
   -2.1092    2.1632   -2.0642 C   0  0  0  0  0  0
   -1.8548    0.8581   -1.2764 C   0  0  0  0  0  0
   -2.0829    4.7188   -1.9626 C   0  0  0  0  0  0
    5.0544    1.7400   -1.4474 N   0  0  0  0  0  0
    6.3235    1.7576   -0.9811 C   0  0  0  0  0  0
    6.7715    0.9329    0.0401 C   0  0  0  0  0  0
    5.8775    0.0360    0.6126 C   0  0  0  0  0  0
    4.5315   -0.0303    0.1482 C   0  0  0  0  0  0
    3.5678   -0.9322    0.6882 C   0  0  0  0  0  0
    2.2628   -0.9066    0.2036 C   0  0  0  0  0  0
    1.8601   -0.0337   -0.8043 C   0  0  0  0  0  0
    2.7930    0.8531   -1.3823 C   0  0  0  0  0  0
    4.1460    0.8676   -0.9020 C   0  0  0  0  0  0
    3.9065   -1.8993    1.7479 N   0  3  0  0  0  0
    3.2243   -1.8899    2.7677 O   0  0  0  0  0  0
    4.8291   -2.6818    1.5443 O   0  5  0  0  0  0
    2.4440    1.6409   -2.3305 O   0  5  0  0  0  0
   -0.6885    1.9793    0.9021 H   0  0  0  0  0  0
    0.9793    1.9593    0.3912 H   0  0  0  0  0  0
   -0.0553    4.1761   -0.1567 H   0  0  0  0  0  0
    0.3555    3.3817   -1.6293 H   0  0  0  0  0  0
   -2.4075    3.3711   -0.3177 H   0  0  0  0  0  0
   -3.1496    2.2016   -2.3890 H   0  0  0  0  0  0
   -1.5347    2.1672   -2.9925 H   0  0  0  0  0  0
   -2.4701    0.8423   -0.3761 H   0  0  0  0  0  0
   -2.1241   -0.0242   -1.8587 H   0  0  0  0  0  0
   -1.4864    4.8040   -2.8719 H   0  0  0  0  0  0
   -1.8633    5.5863   -1.3395 H   0  0  0  0  0  0
   -3.1335    4.7797   -2.2476 H   0  0  0  0  0  0
    6.9936    2.4642   -1.4478 H   0  0  0  0  0  0
    7.7940    0.9869    0.3837 H   0  0  0  0  0  0
    6.2143   -0.6040    1.4138 H   0  0  0  0  0  0
    1.5437   -1.5946    0.6283 H   0  0  0  0  0  0
  1  2  2  0  0  0
  1  3  1  0  0  0
  1 17  1  0  0  0
  3  4  1  0  0  0
  3  8  1  0  0  0
  4  5  1  0  0  0
  4 24  1  0  0  0
  4 25  1  0  0  0
  5  6  1  0  0  0
  5 26  1  0  0  0
  5 27  1  0  0  0
  6  7  1  0  0  0
  6  9  1  0  0  0
  6 28  1  0  0  0
  7  8  1  0  0  0
  7 29  1  0  0  0
  7 30  1  0  0  0
  8 31  1  0  0  0
  8 32  1  0  0  0
  9 33  1  0  0  0
  9 34  1  0  0  0
  9 35  1  0  0  0
 10 11  2  0  0  0
 10 19  1  0  0  0
 11 12  1  0  0  0
 11 36  1  0  0  0
 12 13  2  0  0  0
 12 37  1  0  0  0
 13 14  1  0  0  0
 13 38  1  0  0  0
 14 15  2  0  0  0
 14 19  1  0  0  0
 15 16  1  0  0  0
 15 20  1  0  0  0
 16 17  2  0  0  0
 16 39  1  0  0  0
 17 18  1  0  0  0
 18 19  2  0  0  0
 18 23  1  0  0  0
 20 21  2  0  0  0
 20 22  1  0  0  0
M  CHG  3  20   1  22  -1  23  -1
M  END
> <chembl_id>
CHEMBL4226425

> <chembl_pref_name>
None

> <s_m_source_file>
sdf/inactives_sanitized.sdf

> <i_m_source_file_index>
384

> <i_lp_mmshare_version>
49012

> <i_m_ct_stereo_status>
1

> <i_f3d_flags>
0

> <s_epik_input>
W0NIMl0xW0NIMl1bQ0hdKFtDSDNdKVtDSDJdW0NIMl1OMUMoPU8pYyhbY0hdYzJbTitdKD1PKVtPLV0pYyhbT0hdKWMoYzIzKW5bY0hdW2NIXVtjSF0z

> <s_epik_cmdline>
J2VwaWtfcHl0aG9uJywgJy1waHQnLCAnMC41JywgJy1waCcsICc3LjUnLCAnLW50JywgJy1tYScsICcyMDAnLCAnLWltYWUnLCAnPGluZmlsZS5tYWU+JywgJy1vbWFlJywgJzxvdXRmaWxlLm1hZT4n

> <r_lp_tautomer_probability>
1

> <r_epik_Ionization_Penalty>
  0.0000

> <r_epik_Ionization_Penalty_Charging>
  0.0000

> <r_epik_Ionization_Penalty_Neutral>
  0.0000

> <r_epik_State_Penalty>
 -0.0000

> <r_epik_Charging_Adjusted_Penalty>
8.50519634272637e-06

> <i_epik_Tot_Q>
-1

> <i_epik_Tot_abs_Q>
3

> <s_lp_Force_Field>
OPLS3e

> <r_lp_Energy>
35.327316

> <b_lp_Chiralities_Consistent>
1

> <s_lp_Variant>
sdf/inactives_sanitized.sdf:384-1

$$$$
sdf/inactives_sanitized.sdf:385
                    3D
 Schrodinger Suite 2020-1.
 48 49  0  0  1  0            999 V2000
   -0.2460   -2.4996   -0.8156 C   0  0  0  0  0  0
   -0.7226   -1.0355   -0.9388 C   0  0  0  0  0  0
   -0.1483   -0.1196    0.2001 C   0  0  0  0  0  0
   -0.6434   -0.7517    1.5405 C   0  0  0  0  0  0
   -0.1716   -2.2116    1.7249 C   0  0  0  0  0  0
   -0.6274   -3.1012    0.5515 C   0  0  0  0  0  0
    1.3304   -0.0289    0.1830 N   0  0  0  0  0  0
   -0.8233    1.3005    0.1802 C   0  0  0  0  0  0
    2.1208    0.5404   -0.7547 C   0  0  0  0  0  0
    3.6169    0.4126   -0.5468 C   0  0  0  0  0  0
    1.6692    1.1345   -1.7362 O   0  0  0  0  0  0
    4.4975    0.8648   -1.5363 C   0  0  0  0  0  0
    5.8751    0.7620   -1.3654 C   0  0  0  0  0  0
    6.4239    0.2039   -0.1996 C   0  0  0  0  0  0
    5.5345   -0.2475    0.7889 C   0  0  0  0  0  0
    4.1564   -0.1458    0.6208 C   0  0  0  0  0  0
    7.8330    0.1065   -0.0221 N   0  0  0  0  0  0
    8.3886   -0.6312    1.1127 C   0  0  0  0  0  0
    8.7431    0.4277   -1.1214 C   0  0  0  0  0  0
   -0.2681    2.2473    0.7432 O   0  0  0  0  0  0
   -2.0293    1.4493   -0.4022 N   0  0  0  0  0  0
   -2.7582    2.7112   -0.4986 C   0  0  0  0  0  0
   -2.0800    3.6998   -1.3558 C   0  0  0  0  0  0
   -1.5485    4.4762   -2.0295 N   0  0  0  0  0  0
   -0.6778   -3.1002   -1.6172 H   0  0  0  0  0  0
    0.8358   -2.5511   -0.9490 H   0  0  0  0  0  0
   -0.3538   -0.6776   -1.9014 H   0  0  0  0  0  0
   -1.8099   -0.9964   -1.0194 H   0  0  0  0  0  0
   -0.2120   -0.1943    2.3756 H   0  0  0  0  0  0
   -1.7238   -0.6603    1.6779 H   0  0  0  0  0  0
   -0.5577   -2.6114    2.6635 H   0  0  0  0  0  0
    0.9159   -2.2451    1.8072 H   0  0  0  0  0  0
   -0.2003   -4.0997    0.6525 H   0  0  0  0  0  0
   -1.7101   -3.2284    0.5974 H   0  0  0  0  0  0
    1.7909   -0.7075    0.7711 H   0  0  0  0  0  0
    4.1256    1.3024   -2.4520 H   0  0  0  0  0  0
    6.5010    1.1276   -2.1647 H   0  0  0  0  0  0
    5.8897   -0.6858    1.7086 H   0  0  0  0  0  0
    3.5217   -0.5056    1.4175 H   0  0  0  0  0  0
    7.9994   -0.2499    2.0572 H   0  0  0  0  0  0
    9.4766   -0.5665    1.1513 H   0  0  0  0  0  0
    8.1180   -1.6855    1.0436 H   0  0  0  0  0  0
    8.5593    1.4329   -1.5015 H   0  0  0  0  0  0
    8.5972   -0.2705   -1.9464 H   0  0  0  0  0  0
    9.7890    0.3736   -0.8176 H   0  0  0  0  0  0
   -2.4345    0.6593   -0.8827 H   0  0  0  0  0  0
   -3.7437    2.5185   -0.9224 H   0  0  0  0  0  0
   -2.9143    3.1460    0.4902 H   0  0  0  0  0  0
  1  2  1  0  0  0
  1  6  1  0  0  0
  1 25  1  0  0  0
  1 26  1  0  0  0
  2  3  1  0  0  0
  2 27  1  0  0  0
  2 28  1  0  0  0
  3  7  1  0  0  0
  3  8  1  0  0  0
  3  4  1  0  0  0
  4  5  1  0  0  0
  4 29  1  0  0  0
  4 30  1  0  0  0
  5  6  1  0  0  0
  5 31  1  0  0  0
  5 32  1  0  0  0
  6 33  1  0  0  0
  6 34  1  0  0  0
  7  9  1  0  0  0
  7 35  1  0  0  0
  8 20  2  0  0  0
  8 21  1  0  0  0
  9 10  1  0  0  0
  9 11  2  0  0  0
 10 12  2  0  0  0
 10 16  1  0  0  0
 12 13  1  0  0  0
 12 36  1  0  0  0
 13 14  2  0  0  0
 13 37  1  0  0  0
 14 15  1  0  0  0
 14 17  1  0  0  0
 15 16  2  0  0  0
 15 38  1  0  0  0
 16 39  1  0  0  0
 17 18  1  0  0  0
 17 19  1  0  0  0
 18 40  1  0  0  0
 18 41  1  0  0  0
 18 42  1  0  0  0
 19 43  1  0  0  0
 19 44  1  0  0  0
 19 45  1  0  0  0
 21 22  1  0  0  0
 21 46  1  0  0  0
 22 23  1  0  0  0
 22 47  1  0  0  0
 22 48  1  0  0  0
 23 24  3  0  0  0
M  END
> <chembl_id>
CHEMBL198859

> <chembl_pref_name>
None

> <s_m_source_file>
sdf/inactives_sanitized.sdf

> <i_m_source_file_index>
385

> <i_lp_mmshare_version>
49012

> <i_m_ct_stereo_status>
1

> <i_f3d_flags>
0

> <s_epik_input>
W0NIMl0xW0NIMl1bQ0gyXVtDSDJdW0NIMl1DMShDKD1PKVtOSF1bQ0gyXUMjTilbTkhdQyg9TyljMltjSF1bY0hdYyhbY0hdW2NIXTIpTihbQ0gzXSlbQ0gzXQ==

> <s_epik_cmdline>
J2VwaWtfcHl0aG9uJywgJy1waHQnLCAnMC41JywgJy1waCcsICc3LjUnLCAnLW50JywgJy1tYScsICcyMDAnLCAnLWltYWUnLCAnPGluZmlsZS5tYWU+JywgJy1vbWFlJywgJzxvdXRmaWxlLm1hZT4n

> <r_lp_tautomer_probability>
1

> <r_epik_Ionization_Penalty>
  0.0002

> <r_epik_Ionization_Penalty_Charging>
  0.0000

> <r_epik_Ionization_Penalty_Neutral>
  0.0002

> <r_epik_State_Penalty>
 -0.0000

> <r_epik_Charging_Adjusted_Penalty>
0

> <i_epik_Tot_Q>
0

> <i_epik_Tot_abs_Q>
0

> <s_lp_Force_Field>
OPLS3e

> <r_lp_Energy>
47.351071

> <b_lp_Chiralities_Consistent>
1

> <s_lp_Variant>
sdf/inactives_sanitized.sdf:385-1

$$$$
sdf/inactives_sanitized.sdf:386
                    3D
 Schrodinger Suite 2020-1.
 38 38  0  0  1  0            999 V2000
   -0.0501    0.1036    0.1879 N   0  0  0  0  0  0
    1.4210    0.0728    0.0971 C   0  0  2  0  0  0
    1.9119   -0.3947   -1.2987 C   0  0  0  0  0  0
    2.9392    0.2907   -1.8270 N   0  0  0  0  0  0
    1.3773   -1.3590   -1.8491 O   0  0  0  0  0  0
    2.0365   -0.8862    1.1686 C   0  0  2  0  0  0
    1.4762   -0.6784    2.5889 C   0  0  0  0  0  0
    3.5086    0.0219   -3.1435 C   0  0  0  0  0  0
    2.5607    0.2743   -4.2437 C   0  0  0  0  0  0
    1.8169    0.4725   -5.1078 N   0  0  0  0  0  0
   -0.7924    1.1075   -0.4244 C   0  0  0  0  0  0
   -2.0996    0.8802   -0.1956 O   0  0  0  0  0  0
   -0.3435    2.0583   -1.0701 O   0  0  0  0  0  0
   -3.0921    1.7652   -0.7002 C   0  0  0  0  0  0
   -4.4679    1.2703   -0.2927 C   0  0  0  0  0  0
   -4.8817    1.3834    1.0371 C   0  0  0  0  0  0
   -6.1438    0.9296    1.4119 C   0  0  0  0  0  0
   -6.9863    0.3660    0.4554 C   0  0  0  0  0  0
   -6.5785    0.2520   -0.8722 C   0  0  0  0  0  0
   -5.3163    0.7051   -1.2477 C   0  0  0  0  0  0
    3.4392   -0.7018    1.2702 O   0  0  0  0  0  0
   -0.5246   -0.6376    0.6825 H   0  0  0  0  0  0
    1.7879    1.0826    0.3025 H   0  0  0  0  0  0
    3.3090    1.0851   -1.3253 H   0  0  0  0  0  0
    1.8588   -1.9286    0.8952 H   0  0  0  0  0  0
    0.4133   -0.9153    2.6394 H   0  0  0  0  0  0
    1.6033    0.3535    2.9184 H   0  0  0  0  0  0
    1.9812   -1.3228    3.3096 H   0  0  0  0  0  0
    4.3742    0.6672   -3.2922 H   0  0  0  0  0  0
    3.8619   -1.0085   -3.2091 H   0  0  0  0  0  0
   -2.9430    2.7729   -0.3085 H   0  0  0  0  0  0
   -3.0258    1.8308   -1.7878 H   0  0  0  0  0  0
   -4.2269    1.8196    1.7779 H   0  0  0  0  0  0
   -6.4682    1.0141    2.4388 H   0  0  0  0  0  0
   -7.9651    0.0139    0.7461 H   0  0  0  0  0  0
   -7.2381   -0.1865   -1.6067 H   0  0  0  0  0  0
   -5.0009    0.6158   -2.2773 H   0  0  0  0  0  0
    3.6075    0.1316    1.7161 H   0  0  0  0  0  0
  1 11  1  0  0  0
  1  2  1  0  0  0
  1 22  1  0  0  0
  2  6  1  0  0  0
  2  3  1  0  0  0
  2 23  1  0  0  0
  3  4  1  0  0  0
  3  5  2  0  0  0
  4  8  1  0  0  0
  4 24  1  0  0  0
  6  7  1  0  0  0
  6 21  1  0  0  0
  6 25  1  0  0  0
  7 26  1  0  0  0
  7 27  1  0  0  0
  7 28  1  0  0  0
  8  9  1  0  0  0
  8 29  1  0  0  0
  8 30  1  0  0  0
  9 10  3  0  0  0
 11 12  1  0  0  0
 11 13  2  0  0  0
 12 14  1  0  0  0
 14 15  1  0  0  0
 14 31  1  0  0  0
 14 32  1  0  0  0
 15 16  2  0  0  0
 15 20  1  0  0  0
 16 17  1  0  0  0
 16 33  1  0  0  0
 17 18  2  0  0  0
 17 34  1  0  0  0
 18 19  1  0  0  0
 18 35  1  0  0  0
 19 20  2  0  0  0
 19 36  1  0  0  0
 20 37  1  0  0  0
 21 38  1  0  0  0
M  END
> <chembl_id>
CHEMBL371059

> <chembl_pref_name>
None

> <i_m_ct_stereo_status>
1

> <s_m_source_file>
sdf/inactives_sanitized.sdf

> <i_m_source_file_index>
386

> <i_lp_mmshare_version>
49012

> <i_f3d_flags>
0

> <s_epik_input>
TiNDW0NIMl1bTkhdQyg9TylbQ0BIXShbQ0BIXShbQ0gzXSlbT0hdKVtOSF1DKD1PKU9bQ0gyXWMxW2NIXVtjSF1bY0hdW2NIXVtjSF0x

> <s_epik_cmdline>
J2VwaWtfcHl0aG9uJywgJy1waHQnLCAnMC41JywgJy1waCcsICc3LjUnLCAnLW50JywgJy1tYScsICcyMDAnLCAnLWltYWUnLCAnPGluZmlsZS5tYWU+JywgJy1vbWFlJywgJzxvdXRmaWxlLm1hZT4n

> <r_lp_tautomer_probability>
1

> <r_epik_Ionization_Penalty>
  0.0000

> <r_epik_Ionization_Penalty_Charging>
  0.0000

> <r_epik_Ionization_Penalty_Neutral>
  0.0000

> <r_epik_State_Penalty>
 -0.0000

> <r_epik_Charging_Adjusted_Penalty>
0

> <i_epik_Tot_Q>
0

> <i_epik_Tot_abs_Q>
0

> <s_epik_Chemistry_Notes>
This compound has an ester and may undergo hydrolysis at high or low pH.

> <s_lp_Force_Field>
OPLS3e

> <r_lp_Energy>
13.435876

> <b_lp_Chiralities_Consistent>
1

> <s_lp_Variant>
sdf/inactives_sanitized.sdf:386-1

$$$$
sdf/inactives_sanitized.sdf:387
                    3D
 Schrodinger Suite 2020-1.
 43 43  0  0  1  0            999 V2000
   -0.5000    1.4937    0.3530 N   0  0  0  0  0  0
   -0.1101    0.0776    0.2285 C   0  0  1  0  0  0
   -0.8052   -0.6344   -0.9583 C   0  0  0  0  0  0
   -1.0503   -1.9453   -0.7994 N   0  0  0  0  0  0
   -1.0716   -0.0105   -1.9871 O   0  0  0  0  0  0
    1.4337   -0.0144    0.0815 C   0  0  0  0  0  0
    2.2497    0.5121    1.2880 C   0  0  0  0  0  0
    3.7589    0.5472    0.9622 C   0  0  0  0  0  0
    1.9501   -0.2652    2.5882 C   0  0  0  0  0  0
   -1.7353   -2.7707   -1.7890 C   0  0  0  0  0  0
   -3.1460   -2.3875   -1.9775 C   0  0  0  0  0  0
   -4.2538   -2.0872   -2.1252 N   0  0  0  0  0  0
   -1.7539    1.8570    0.8324 C   0  0  0  0  0  0
   -1.8760    3.1956    0.7553 O   0  0  0  0  0  0
   -2.6250    1.0920    1.2548 O   0  0  0  0  0  0
   -3.0822    3.8417    1.1469 C   0  0  0  0  0  0
   -3.0007    5.3267    0.8343 C   0  0  0  0  0  0
   -3.1843    6.2627    1.8552 C   0  0  0  0  0  0
   -3.1201    7.6242    1.5690 C   0  0  0  0  0  0
   -2.8741    8.0445    0.2633 C   0  0  0  0  0  0
   -2.6921    7.1159   -0.7595 C   0  0  0  0  0  0
   -2.7576    5.7545   -0.4743 C   0  0  0  0  0  0
    0.1024    2.1996   -0.0445 H   0  0  0  0  0  0
   -0.3926   -0.4431    1.1466 H   0  0  0  0  0  0
   -0.8212   -2.3850    0.0802 H   0  0  0  0  0  0
    1.7271   -1.0515   -0.0947 H   0  0  0  0  0  0
    1.7362    0.5289   -0.8165 H   0  0  0  0  0  0
    1.9537    1.5480    1.4583 H   0  0  0  0  0  0
    4.3405   -0.1425    1.5740 H   0  0  0  0  0  0
    4.1664    1.5454    1.1249 H   0  0  0  0  0  0
    3.9594    0.2866   -0.0776 H   0  0  0  0  0  0
    1.4351   -1.2060    2.3932 H   0  0  0  0  0  0
    1.3127    0.3239    3.2481 H   0  0  0  0  0  0
    2.8501   -0.5077    3.1528 H   0  0  0  0  0  0
   -1.2250   -2.7266   -2.7528 H   0  0  0  0  0  0
   -1.7106   -3.8100   -1.4618 H   0  0  0  0  0  0
   -3.9369    3.4170    0.6172 H   0  0  0  0  0  0
   -3.2511    3.6895    2.2145 H   0  0  0  0  0  0
   -3.3762    5.9397    2.8683 H   0  0  0  0  0  0
   -3.2614    8.3511    2.3552 H   0  0  0  0  0  0
   -2.8249    9.1004    0.0415 H   0  0  0  0  0  0
   -2.5023    7.4503   -1.7688 H   0  0  0  0  0  0
   -2.6194    5.0343   -1.2679 H   0  0  0  0  0  0
  1  2  1  0  0  0
  1 13  1  0  0  0
  1 23  1  0  0  0
  2  6  1  0  0  0
  2  3  1  0  0  0
  2 24  1  0  0  0
  3  4  1  0  0  0
  3  5  2  0  0  0
  4 10  1  0  0  0
  4 25  1  0  0  0
  6  7  1  0  0  0
  6 26  1  0  0  0
  6 27  1  0  0  0
  7  8  1  0  0  0
  7  9  1  0  0  0
  7 28  1  0  0  0
  8 29  1  0  0  0
  8 30  1  0  0  0
  8 31  1  0  0  0
  9 32  1  0  0  0
  9 33  1  0  0  0
  9 34  1  0  0  0
 10 11  1  0  0  0
 10 35  1  0  0  0
 10 36  1  0  0  0
 11 12  3  0  0  0
 13 14  1  0  0  0
 13 15  2  0  0  0
 14 16  1  0  0  0
 16 17  1  0  0  0
 16 37  1  0  0  0
 16 38  1  0  0  0
 17 18  2  0  0  0
 17 22  1  0  0  0
 18 19  1  0  0  0
 18 39  1  0  0  0
 19 20  2  0  0  0
 19 40  1  0  0  0
 20 21  1  0  0  0
 20 41  1  0  0  0
 21 22  2  0  0  0
 21 42  1  0  0  0
 22 43  1  0  0  0
M  END
> <chembl_id>
CHEMBL200511

> <chembl_pref_name>
None

> <i_m_ct_stereo_status>
1

> <s_m_source_file>
sdf/inactives_sanitized.sdf

> <i_m_source_file_index>
387

> <i_lp_mmshare_version>
49012

> <i_f3d_flags>
0

> <s_epik_input>
TiNDW0NIMl1bTkhdQyg9TylbQ0BASF0oW0NIMl1bQ0hdKFtDSDNdKVtDSDNdKVtOSF1DKD1PKU9bQ0gyXWMxW2NIXVtjSF1bY0hdW2NIXVtjSF0x

> <s_epik_cmdline>
J2VwaWtfcHl0aG9uJywgJy1waHQnLCAnMC41JywgJy1waCcsICc3LjUnLCAnLW50JywgJy1tYScsICcyMDAnLCAnLWltYWUnLCAnPGluZmlsZS5tYWU+JywgJy1vbWFlJywgJzxvdXRmaWxlLm1hZT4n

> <r_lp_tautomer_probability>
1

> <r_epik_Ionization_Penalty>
  0.0000

> <r_epik_Ionization_Penalty_Charging>
  0.0000

> <r_epik_Ionization_Penalty_Neutral>
  0.0000

> <r_epik_State_Penalty>
 -0.0000

> <r_epik_Charging_Adjusted_Penalty>
0

> <i_epik_Tot_Q>
0

> <i_epik_Tot_abs_Q>
0

> <s_epik_Chemistry_Notes>
This compound has an ester and may undergo hydrolysis at high or low pH.

> <s_lp_Force_Field>
OPLS3e

> <r_lp_Energy>
15.393847

> <b_lp_Chiralities_Consistent>
1

> <s_lp_Variant>
sdf/inactives_sanitized.sdf:387-1

$$$$
sdf/inactives_sanitized.sdf:388
                    3D
 Schrodinger Suite 2020-1.
 35 36  0  0  1  0            999 V2000
   -1.0493   -1.2602   -0.6856 C   0  0  0  0  0  0
   -0.8707   -1.1720    0.8126 C   0  0  0  0  0  0
   -0.0951   -0.2324   -0.0928 C   0  0  0  0  0  0
   -0.5178    1.1750   -0.0936 N   0  0  0  0  0  0
    1.4205   -0.5326   -0.2530 C   0  0  0  0  0  0
    2.2554    0.5145   -0.3865 N   0  0  0  0  0  0
    1.8310   -1.6953   -0.2532 O   0  0  0  0  0  0
    3.6983    0.4101   -0.5869 C   0  0  0  0  0  0
    4.0539   -0.2053   -1.8778 C   0  0  0  0  0  0
    4.3333   -0.6882   -2.8916 N   0  0  0  0  0  0
   -0.7587    1.8943   -1.2562 C   0  0  0  0  0  0
   -1.0976    3.1551   -0.9261 O   0  0  0  0  0  0
   -0.6721    1.4646   -2.4090 O   0  0  0  0  0  0
   -1.3827    4.1220   -1.9339 C   0  0  0  0  0  0
   -1.7442    5.4793   -1.3378 C   0  0  0  0  0  0
   -2.4501    6.3873   -2.1316 C   0  0  0  0  0  0
   -2.7925    7.6396   -1.6280 C   0  0  0  0  0  0
   -2.4253    7.9847   -0.3295 C   0  0  0  0  0  0
   -1.7161    7.0899    0.4684 C   0  0  0  0  0  0
   -1.3728    5.8379   -0.0353 C   0  0  0  0  0  0
   -0.6887   -2.1876   -1.1332 H   0  0  0  0  0  0
   -1.9923   -0.9272   -1.1204 H   0  0  0  0  0  0
   -1.6847   -0.7732    1.4190 H   0  0  0  0  0  0
   -0.4028   -2.0466    1.2673 H   0  0  0  0  0  0
   -0.5811    1.6566    0.7915 H   0  0  0  0  0  0
    1.8604    1.4423   -0.4352 H   0  0  0  0  0  0
    4.1328    1.4093   -0.5595 H   0  0  0  0  0  0
    4.1612   -0.1627    0.2182 H   0  0  0  0  0  0
   -0.5198    4.2447   -2.5906 H   0  0  0  0  0  0
   -2.2178    3.7677   -2.5412 H   0  0  0  0  0  0
   -2.7360    6.1242   -3.1399 H   0  0  0  0  0  0
   -3.3399    8.3400   -2.2414 H   0  0  0  0  0  0
   -2.6904    8.9560    0.0618 H   0  0  0  0  0  0
   -1.4322    7.3671    1.4729 H   0  0  0  0  0  0
   -0.8176    5.1556    0.5917 H   0  0  0  0  0  0
  1  2  1  0  0  0
  1  3  1  0  0  0
  1 21  1  0  0  0
  1 22  1  0  0  0
  2  3  1  0  0  0
  2 23  1  0  0  0
  2 24  1  0  0  0
  3  5  1  0  0  0
  3  4  1  0  0  0
  4 11  1  0  0  0
  4 25  1  0  0  0
  5  6  1  0  0  0
  5  7  2  0  0  0
  6  8  1  0  0  0
  6 26  1  0  0  0
  8  9  1  0  0  0
  8 27  1  0  0  0
  8 28  1  0  0  0
  9 10  3  0  0  0
 11 12  1  0  0  0
 11 13  2  0  0  0
 12 14  1  0  0  0
 14 15  1  0  0  0
 14 29  1  0  0  0
 14 30  1  0  0  0
 15 16  2  0  0  0
 15 20  1  0  0  0
 16 17  1  0  0  0
 16 31  1  0  0  0
 17 18  2  0  0  0
 17 32  1  0  0  0
 18 19  1  0  0  0
 18 33  1  0  0  0
 19 20  2  0  0  0
 19 34  1  0  0  0
 20 35  1  0  0  0
M  END
> <chembl_id>
CHEMBL200776

> <chembl_pref_name>
None

> <s_m_source_file>
sdf/inactives_sanitized.sdf

> <i_m_source_file_index>
388

> <i_lp_mmshare_version>
49012

> <i_m_ct_stereo_status>
1

> <i_f3d_flags>
0

> <s_epik_input>
TiNDW0NIMl1bTkhdQyg9TylDMShbQ0gyXVtDSDJdMSlbTkhdQyg9TylPW0NIMl1jMltjSF1bY0hdW2NIXVtjSF1bY0hdMg==

> <s_epik_cmdline>
J2VwaWtfcHl0aG9uJywgJy1waHQnLCAnMC41JywgJy1waCcsICc3LjUnLCAnLW50JywgJy1tYScsICcyMDAnLCAnLWltYWUnLCAnPGluZmlsZS5tYWU+JywgJy1vbWFlJywgJzxvdXRmaWxlLm1hZT4n

> <r_lp_tautomer_probability>
1

> <r_epik_Ionization_Penalty>
  0.0000

> <r_epik_Ionization_Penalty_Charging>
  0.0000

> <r_epik_Ionization_Penalty_Neutral>
  0.0000

> <r_epik_State_Penalty>
 -0.0000

> <r_epik_Charging_Adjusted_Penalty>
0

> <i_epik_Tot_Q>
0

> <i_epik_Tot_abs_Q>
0

> <s_epik_Chemistry_Notes>
This compound has an ester and may undergo hydrolysis at high or low pH.

> <s_lp_Force_Field>
OPLS3e

> <r_lp_Energy>
13.060952

> <b_lp_Chiralities_Consistent>
1

> <s_lp_Variant>
sdf/inactives_sanitized.sdf:388-1

$$$$
sdf/inactives_sanitized.sdf:389
                    3D
 Schrodinger Suite 2020-1.
 41 42  0  0  1  0            999 V2000
   -1.8518   -1.5487    0.6443 C   0  0  0  0  0  0
   -1.3765   -1.9797   -0.7424 C   0  0  0  0  0  0
   -0.5793   -0.7781   -1.2638 C   0  0  0  0  0  0
    0.0258   -0.0869    0.0041 C   0  0  0  0  0  0
   -0.6721   -0.7633    1.2259 C   0  0  0  0  0  0
    1.4993   -0.1487    0.0799 N   0  0  0  0  0  0
   -0.1865    1.4591    0.0233 C   0  0  0  0  0  0
   -0.2397    2.1042   -1.1588 N   0  0  0  0  0  0
   -0.1335    2.0840    1.0857 O   0  0  0  0  0  0
   -0.2837    3.5555   -1.3167 C   0  0  0  0  0  0
    0.9656    4.2122   -0.8927 C   0  0  0  0  0  0
    1.9468    4.7273   -0.5602 N   0  0  0  0  0  0
    2.2672   -1.3042   -0.0026 C   0  0  0  0  0  0
    3.5667   -0.9641    0.0907 O   0  0  0  0  0  0
    1.8498   -2.4556   -0.1439 O   0  0  0  0  0  0
    4.5872   -1.9513   -0.0002 C   0  0  0  0  0  0
    5.9506   -1.2828    0.0189 C   0  0  0  0  0  0
    6.8271   -1.5176    1.0810 C   0  0  0  0  0  0
    8.0802   -0.9100    1.0934 C   0  0  0  0  0  0
    8.4514   -0.0713    0.0443 C   0  0  0  0  0  0
    7.5813    0.1657   -1.0180 C   0  0  0  0  0  0
    6.3285   -0.4420   -1.0316 C   0  0  0  0  0  0
   -2.7256   -0.9009    0.5562 H   0  0  0  0  0  0
   -2.1332   -2.3983    1.2674 H   0  0  0  0  0  0
   -0.7348   -2.8582   -0.6625 H   0  0  0  0  0  0
   -2.2065   -2.2438   -1.3988 H   0  0  0  0  0  0
    0.1710   -1.0774   -1.9973 H   0  0  0  0  0  0
   -1.2882   -0.1389   -1.7928 H   0  0  0  0  0  0
   -0.0033   -1.4835    1.6997 H   0  0  0  0  0  0
   -0.9838   -0.0902    2.0263 H   0  0  0  0  0  0
    1.9861    0.7243    0.2234 H   0  0  0  0  0  0
   -0.1644    1.5623   -2.0071 H   0  0  0  0  0  0
   -1.1162    3.9826   -0.7552 H   0  0  0  0  0  0
   -0.4495    3.7931   -2.3673 H   0  0  0  0  0  0
    4.5008   -2.6556    0.8292 H   0  0  0  0  0  0
    4.4874   -2.5245   -0.9238 H   0  0  0  0  0  0
    6.5407   -2.1674    1.8952 H   0  0  0  0  0  0
    8.7617   -1.0888    1.9120 H   0  0  0  0  0  0
    9.4234    0.3996    0.0539 H   0  0  0  0  0  0
    7.8776    0.8166   -1.8274 H   0  0  0  0  0  0
    5.6535   -0.2588   -1.8552 H   0  0  0  0  0  0
  1  2  1  0  0  0
  1  5  1  0  0  0
  1 23  1  0  0  0
  1 24  1  0  0  0
  2  3  1  0  0  0
  2 25  1  0  0  0
  2 26  1  0  0  0
  3  4  1  0  0  0
  3 27  1  0  0  0
  3 28  1  0  0  0
  4  6  1  0  0  0
  4  7  1  0  0  0
  4  5  1  0  0  0
  5 29  1  0  0  0
  5 30  1  0  0  0
  6 13  1  0  0  0
  6 31  1  0  0  0
  7  8  1  0  0  0
  7  9  2  0  0  0
  8 10  1  0  0  0
  8 32  1  0  0  0
 10 11  1  0  0  0
 10 33  1  0  0  0
 10 34  1  0  0  0
 11 12  3  0  0  0
 13 14  1  0  0  0
 13 15  2  0  0  0
 14 16  1  0  0  0
 16 17  1  0  0  0
 16 35  1  0  0  0
 16 36  1  0  0  0
 17 18  2  0  0  0
 17 22  1  0  0  0
 18 19  1  0  0  0
 18 37  1  0  0  0
 19 20  2  0  0  0
 19 38  1  0  0  0
 20 21  1  0  0  0
 20 39  1  0  0  0
 21 22  2  0  0  0
 21 40  1  0  0  0
 22 41  1  0  0  0
M  END
> <chembl_id>
CHEMBL372140

> <chembl_pref_name>
None

> <s_m_source_file>
sdf/inactives_sanitized.sdf

> <i_m_source_file_index>
389

> <i_lp_mmshare_version>
49012

> <i_m_ct_stereo_status>
1

> <i_f3d_flags>
0

> <s_epik_input>
TiNDW0NIMl1bTkhdQyg9TylDMShbQ0gyXVtDSDJdW0NIMl1bQ0gyXTEpW05IXUMoPU8pT1tDSDJdYzJbY0hdW2NIXVtjSF1bY0hdW2NIXTI=

> <s_epik_cmdline>
J2VwaWtfcHl0aG9uJywgJy1waHQnLCAnMC41JywgJy1waCcsICc3LjUnLCAnLW50JywgJy1tYScsICcyMDAnLCAnLWltYWUnLCAnPGluZmlsZS5tYWU+JywgJy1vbWFlJywgJzxvdXRmaWxlLm1hZT4n

> <r_lp_tautomer_probability>
1

> <r_epik_Ionization_Penalty>
  0.0000

> <r_epik_Ionization_Penalty_Charging>
  0.0000

> <r_epik_Ionization_Penalty_Neutral>
  0.0000

> <r_epik_State_Penalty>
 -0.0000

> <r_epik_Charging_Adjusted_Penalty>
0

> <i_epik_Tot_Q>
0

> <i_epik_Tot_abs_Q>
0

> <s_epik_Chemistry_Notes>
This compound has an ester and may undergo hydrolysis at high or low pH.

> <s_lp_Force_Field>
OPLS3e

> <r_lp_Energy>
38.33667

> <b_lp_Chiralities_Consistent>
1

> <s_lp_Variant>
sdf/inactives_sanitized.sdf:389-1

$$$$
sdf/inactives_sanitized.sdf:390
                    3D
 Schrodinger Suite 2020-1.
 40 41  0  0  1  0            999 V2000
   -2.1130   -0.7999    1.2953 C   0  0  0  0  0  0
   -0.5717   -0.6990    1.3379 C   0  0  0  0  0  0
    0.0217    0.0465    0.0996 C   0  0  0  0  0  0
   -0.4620   -0.7382   -1.1692 C   0  0  0  0  0  0
   -2.0007   -0.8321   -1.2582 C   0  0  0  0  0  0
   -2.5985   -1.4850    0.0031 C   0  0  0  0  0  0
   -0.4101    1.4653    0.0930 N   0  0  0  0  0  0
    1.5763   -0.1286    0.2456 C   0  0  0  0  0  0
    2.2272    0.7647    1.0173 N   0  0  0  0  0  0
    2.1481   -1.1367   -0.1760 O   0  0  0  0  0  0
    3.6413    0.6899    1.3742 C   0  0  0  0  0  0
    3.9504   -0.4550    2.2487 C   0  0  0  0  0  0
    4.1931   -1.3536    2.9361 N   0  0  0  0  0  0
   -0.0317    2.4546   -0.7471 C   0  0  0  0  0  0
   -0.7114    3.7941   -0.5554 C   0  0  0  0  0  0
    0.8363    2.3063   -1.6096 O   0  0  0  0  0  0
   -1.8599    3.9345    0.2447 C   0  0  0  0  0  0
   -2.4705    5.1787    0.4059 C   0  0  0  0  0  0
   -1.9464    6.3016   -0.2313 C   0  0  0  0  0  0
   -0.8114    6.1799   -1.0300 C   0  0  0  0  0  0
   -0.1997    4.9367   -1.1914 C   0  0  0  0  0  0
   -4.0214    5.3406    1.4972 Br  0  0  0  0  0  0
   -2.4734   -1.3520    2.1641 H   0  0  0  0  0  0
   -2.5531    0.1960    1.3663 H   0  0  0  0  0  0
   -0.3318   -0.1338    2.2415 H   0  0  0  0  0  0
   -0.1153   -1.6791    1.4985 H   0  0  0  0  0  0
   -0.0117   -1.7285   -1.2583 H   0  0  0  0  0  0
   -0.1365   -0.2053   -2.0640 H   0  0  0  0  0  0
   -2.4265    0.1637   -1.3911 H   0  0  0  0  0  0
   -2.2871   -1.4038   -2.1419 H   0  0  0  0  0  0
   -3.6878   -1.4608   -0.0454 H   0  0  0  0  0  0
   -2.3191   -2.5396    0.0287 H   0  0  0  0  0  0
   -1.2915    1.6241    0.5584 H   0  0  0  0  0  0
    1.6975    1.5150    1.4364 H   0  0  0  0  0  0
    4.2639    0.6306    0.4801 H   0  0  0  0  0  0
    3.9224    1.6016    1.9012 H   0  0  0  0  0  0
   -2.2962    3.0848    0.7498 H   0  0  0  0  0  0
   -2.4183    7.2655   -0.1078 H   0  0  0  0  0  0
   -0.4047    7.0496   -1.5247 H   0  0  0  0  0  0
    0.6796    4.8740   -1.8172 H   0  0  0  0  0  0
  1  2  1  0  0  0
  1  6  1  0  0  0
  1 23  1  0  0  0
  1 24  1  0  0  0
  2  3  1  0  0  0
  2 25  1  0  0  0
  2 26  1  0  0  0
  3  7  1  0  0  0
  3  8  1  0  0  0
  3  4  1  0  0  0
  4  5  1  0  0  0
  4 27  1  0  0  0
  4 28  1  0  0  0
  5  6  1  0  0  0
  5 29  1  0  0  0
  5 30  1  0  0  0
  6 31  1  0  0  0
  6 32  1  0  0  0
  7 14  1  0  0  0
  7 33  1  0  0  0
  8  9  1  0  0  0
  8 10  2  0  0  0
  9 11  1  0  0  0
  9 34  1  0  0  0
 11 12  1  0  0  0
 11 35  1  0  0  0
 11 36  1  0  0  0
 12 13  3  0  0  0
 14 15  1  0  0  0
 14 16  2  0  0  0
 15 17  2  0  0  0
 15 21  1  0  0  0
 17 18  1  0  0  0
 17 37  1  0  0  0
 18 19  2  0  0  0
 18 22  1  0  0  0
 19 20  1  0  0  0
 19 38  1  0  0  0
 20 21  2  0  0  0
 20 39  1  0  0  0
 21 40  1  0  0  0
M  END
> <chembl_id>
CHEMBL200482

> <chembl_pref_name>
None

> <s_m_source_file>
sdf/inactives_sanitized.sdf

> <i_m_source_file_index>
390

> <i_lp_mmshare_version>
49012

> <i_m_ct_stereo_status>
1

> <i_f3d_flags>
0

> <s_epik_input>
W0NIMl0xW0NIMl1bQ0gyXVtDSDJdW0NIMl1DMShDKD1PKVtOSF1bQ0gyXUMjTilbTkhdQyg9TyljMltjSF1jKEJyKVtjSF1bY0hdW2NIXTI=

> <s_epik_cmdline>
J2VwaWtfcHl0aG9uJywgJy1waHQnLCAnMC41JywgJy1waCcsICc3LjUnLCAnLW50JywgJy1tYScsICcyMDAnLCAnLWltYWUnLCAnPGluZmlsZS5tYWU+JywgJy1vbWFlJywgJzxvdXRmaWxlLm1hZT4n

> <r_lp_tautomer_probability>
1

> <r_epik_Ionization_Penalty>
  0.0000

> <r_epik_Ionization_Penalty_Charging>
  0.0000

> <r_epik_Ionization_Penalty_Neutral>
  0.0000

> <r_epik_State_Penalty>
 -0.0000

> <r_epik_Charging_Adjusted_Penalty>
0

> <i_epik_Tot_Q>
0

> <i_epik_Tot_abs_Q>
0

> <s_lp_Force_Field>
OPLS3e

> <r_lp_Energy>
34.677867

> <b_lp_Chiralities_Consistent>
1

> <s_lp_Variant>
sdf/inactives_sanitized.sdf:390-1

$$$$
sdf/inactives_sanitized.sdf:391
                    3D
 Schrodinger Suite 2020-1.
 72 75  0  0  1  0            999 V2000
   -8.7155    1.3785    4.5270 C   0  0  0  0  0  0
   -8.2466    1.4450    5.8394 C   0  0  0  0  0  0
   -6.8978    1.7580    6.0695 C   0  0  0  0  0  0
   -6.0381    1.9944    5.0003 C   0  0  0  0  0  0
   -6.5165    1.9140    3.6853 C   0  0  0  0  0  0
   -7.8596    1.6150    3.4550 C   0  0  0  0  0  0
   -2.7001   -0.4952   -1.3428 C   0  0  0  0  0  0
   -2.7211    0.7223   -0.9373 N   0  0  0  0  0  0
   -0.0459   -0.2653    0.1104 N   0  0  0  0  0  0
   -2.1027    1.0603    0.3392 C   0  0  1  0  0  0
   -0.5576    1.0088    0.2051 C   0  0  0  0  0  0
   -2.6147    2.4579    0.7765 C   0  0  0  0  0  0
   -3.9804    2.4412    1.1947 O   0  0  0  0  0  0
    0.1151    2.0450    0.1831 O   0  0  0  0  0  0
   -2.0458   -1.6127   -0.5952 C   0  0  0  0  0  0
   -0.8025   -1.4855    0.1022 C   0  0  0  0  0  0
   -0.2837   -2.6389    0.7203 C   0  0  0  0  0  0
   -0.9577   -3.8540    0.7160 C   0  0  0  0  0  0
   -2.1806   -3.9587    0.0738 C   0  0  0  0  0  0
   -2.7145   -2.8508   -0.5714 C   0  0  0  0  0  0
   -3.3397   -0.8154   -2.6401 C   0  0  0  0  0  0
   -2.7029   -1.6694   -3.5527 C   0  0  0  0  0  0
   -3.3031   -1.9662   -4.7734 C   0  0  0  0  0  0
   -4.5398   -1.4098   -5.0885 C   0  0  0  0  0  0
   -5.1815   -0.5562   -4.1952 C   0  0  0  0  0  0
   -4.5826   -0.2567   -2.9745 C   0  0  0  0  0  0
   -4.3366    2.0566    2.4406 C   0  0  0  0  0  0
   -5.7188    2.1598    2.5566 N   0  0  0  0  0  0
   -3.5447    1.6775    3.3070 O   0  0  0  0  0  0
    1.4381   -0.3510    0.0076 C   0  0  0  0  0  0
    2.1454   -0.2037    1.3757 C   0  0  0  0  0  0
    1.5121   -0.1803    2.4341 O   0  0  0  0  0  0
    3.4848   -0.1048    1.3199 N   0  0  0  0  0  0
    4.3650    0.0842    2.4726 C   0  0  0  0  0  0
    4.2583    1.4649    3.0991 C   0  0  0  0  0  0
    5.2499    2.3798    3.1119 C   0  0  0  0  0  0
    5.1449    3.7101    3.7110 C   0  0  0  0  0  0
    3.9498    3.9678    4.3010 O   0  0  0  0  0  0
    6.0832    4.5082    3.6663 O   0  0  0  0  0  0
    3.6992    5.2198    4.9235 C   0  0  0  0  0  0
   -9.1694    1.1960    6.8373 O   0  0  0  0  0  0
   -8.7519    1.2473    8.1974 C   0  0  0  0  0  0
   -9.7527    1.1435    4.3372 H   0  0  0  0  0  0
   -6.4991    1.8273    7.0700 H   0  0  0  0  0  0
   -5.0121    2.2518    5.2141 H   0  0  0  0  0  0
   -8.2470    1.5609    2.4474 H   0  0  0  0  0  0
   -2.3992    0.3615    1.1269 H   0  0  0  0  0  0
   -1.9956    2.8626    1.5801 H   0  0  0  0  0  0
   -2.5228    3.1622   -0.0516 H   0  0  0  0  0  0
    0.6614   -2.6014    1.2405 H   0  0  0  0  0  0
   -0.5315   -4.7122    1.2142 H   0  0  0  0  0  0
   -2.7137   -4.8979    0.0712 H   0  0  0  0  0  0
   -3.6693   -2.9727   -1.0637 H   0  0  0  0  0  0
   -1.7392   -2.1040   -3.3265 H   0  0  0  0  0  0
   -2.8106   -2.6237   -5.4745 H   0  0  0  0  0  0
   -5.0044   -1.6406   -6.0358 H   0  0  0  0  0  0
   -6.1400   -0.1275   -4.4479 H   0  0  0  0  0  0
   -5.0946    0.4063   -2.2910 H   0  0  0  0  0  0
   -6.2184    2.3941    1.7114 H   0  0  0  0  0  0
    1.7248   -1.3073   -0.4311 H   0  0  0  0  0  0
    1.8208    0.4031   -0.6828 H   0  0  0  0  0  0
    3.9277   -0.0799    0.4129 H   0  0  0  0  0  0
    4.1685   -0.6858    3.2209 H   0  0  0  0  0  0
    5.3886   -0.0790    2.1325 H   0  0  0  0  0  0
    3.3005    1.6837    3.5510 H   0  0  0  0  0  0
    6.2013    2.1472    2.6550 H   0  0  0  0  0  0
    2.6991    5.2229    5.3569 H   0  0  0  0  0  0
    3.7589    6.0350    4.2009 H   0  0  0  0  0  0
    4.4159    5.4107    5.7235 H   0  0  0  0  0  0
   -9.5997    1.0197    8.8433 H   0  0  0  0  0  0
   -8.3889    2.2403    8.4673 H   0  0  0  0  0  0
   -7.9730    0.5122    8.4052 H   0  0  0  0  0  0
  1  6  2  0  0  0
  1  2  1  0  0  0
  1 43  1  0  0  0
  2  3  2  0  0  0
  2 41  1  0  0  0
  3  4  1  0  0  0
  3 44  1  0  0  0
  4  5  2  0  0  0
  4 45  1  0  0  0
  5  6  1  0  0  0
  5 28  1  0  0  0
  6 46  1  0  0  0
  7 21  1  0  0  0
  7 15  1  0  0  0
  7  8  2  0  0  0
  8 10  1  0  0  0
  9 11  1  0  0  0
  9 30  1  0  0  0
  9 16  1  0  0  0
 10 11  1  0  0  0
 10 12  1  0  0  0
 10 47  1  0  0  0
 11 14  2  0  0  0
 12 13  1  0  0  0
 12 48  1  0  0  0
 12 49  1  0  0  0
 13 27  1  0  0  0
 15 16  2  0  0  0
 15 20  1  0  0  0
 16 17  1  0  0  0
 17 18  2  0  0  0
 17 50  1  0  0  0
 18 19  1  0  0  0
 18 51  1  0  0  0
 19 20  2  0  0  0
 19 52  1  0  0  0
 20 53  1  0  0  0
 21 22  2  0  0  0
 21 26  1  0  0  0
 22 23  1  0  0  0
 22 54  1  0  0  0
 23 24  2  0  0  0
 23 55  1  0  0  0
 24 25  1  0  0  0
 24 56  1  0  0  0
 25 26  2  0  0  0
 25 57  1  0  0  0
 26 58  1  0  0  0
 27 28  1  0  0  0
 27 29  2  0  0  0
 28 59  1  0  0  0
 30 31  1  0  0  0
 30 60  1  0  0  0
 30 61  1  0  0  0
 31 32  2  0  0  0
 31 33  1  0  0  0
 33 34  1  0  0  0
 33 62  1  0  0  0
 34 35  1  0  0  0
 34 63  1  0  0  0
 34 64  1  0  0  0
 35 36  2  0  0  0
 35 65  1  0  0  0
 36 37  1  0  0  0
 36 66  1  0  0  0
 37 38  1  0  0  0
 37 39  2  0  0  0
 38 40  1  0  0  0
 40 67  1  0  0  0
 40 68  1  0  0  0
 40 69  1  0  0  0
 41 42  1  0  0  0
 42 70  1  0  0  0
 42 71  1  0  0  0
 42 72  1  0  0  0
M  END
> <chembl_id>
CHEMBL1171635

> <chembl_pref_name>
None

> <i_m_ct_stereo_status>
1

> <s_m_source_file>
sdf/inactives_sanitized.sdf

> <i_m_source_file_index>
391

> <i_lp_mmshare_version>
49012

> <i_f3d_flags>
0

> <s_epik_input>
W0NIM11PYzFbY0hdW2NIXWMoW2NIXVtjSF0xKVtOSF1DKD1PKU9bQ0gyXVtDQEBIXShOPUMyYzNbY0hdW2NIXVtjSF1bY0hdW2NIXTMpQyg9TylOKGMoYzI0KVtjSF1bY0hdW2NIXVtjSF00KVtDSDJdQyg9TylbTkhdW0NIMl0vW0NIXT1bQ0hdL0MoPU8pT1tDSDNd

> <s_epik_cmdline>
J2VwaWtfcHl0aG9uJywgJy1waHQnLCAnMC41JywgJy1waCcsICc3LjUnLCAnLW50JywgJy1tYScsICcyMDAnLCAnLWltYWUnLCAnPGluZmlsZS5tYWU+JywgJy1vbWFlJywgJzxvdXRmaWxlLm1hZT4n

> <r_lp_tautomer_probability>
1

> <r_epik_Ionization_Penalty>
  0.0000

> <r_epik_Ionization_Penalty_Charging>
  0.0000

> <r_epik_Ionization_Penalty_Neutral>
  0.0000

> <r_epik_State_Penalty>
 -0.0000

> <r_epik_Charging_Adjusted_Penalty>
0

> <i_epik_Tot_Q>
0

> <i_epik_Tot_abs_Q>
0

> <s_epik_Chemistry_Notes>
This compound has an ester and may undergo hydrolysis at high or low pH. This compound has an imine and may undergo hydrolysis.

> <s_lp_Force_Field>
OPLS3e

> <r_lp_Energy>
71.313665

> <b_lp_Chiralities_Consistent>
1

> <s_lp_Variant>
sdf/inactives_sanitized.sdf:391-1

$$$$
sdf/inactives_sanitized.sdf:392
                    3D
 Schrodinger Suite 2020-1.
 70 72  0  0  1  0            999 V2000
   -0.2922    4.2428    3.6563 C   0  0  0  0  0  0
   -2.4224   -0.3162   -1.3855 C   0  0  0  0  0  0
   -2.2893    0.9517   -1.2254 N   0  0  0  0  0  0
    0.2072   -0.1413   -0.0025 N   0  0  0  0  0  0
   -1.6687    1.4582   -0.0051 C   0  0  1  0  0  0
   -0.1331    1.1925   -0.0376 C   0  0  0  0  0  0
   -2.0492    2.9511    0.1288 C   0  0  0  0  0  0
   -1.5461    3.4977    1.3441 O   0  0  0  0  0  0
    0.6696    2.1255   -0.1393 O   0  0  0  0  0  0
   -1.9462   -1.3235   -0.3892 C   0  0  0  0  0  0
   -0.7012   -1.2065    0.3042 C   0  0  0  0  0  0
   -0.3298   -2.2627    1.1557 C   0  0  0  0  0  0
   -1.1644   -3.3487    1.3961 C   0  0  0  0  0  0
   -2.3956   -3.4255    0.7634 C   0  0  0  0  0  0
   -2.7785   -2.4239   -0.1201 C   0  0  0  0  0  0
   -3.0287   -0.8140   -2.6439 C   0  0  0  0  0  0
   -4.0884   -0.1184   -3.2466 C   0  0  0  0  0  0
   -4.6259   -0.5608   -4.4522 C   0  0  0  0  0  0
   -4.1073   -1.6986   -5.0635 C   0  0  0  0  0  0
   -3.0556   -2.3993   -4.4799 C   0  0  0  0  0  0
   -2.5170   -1.9588   -3.2742 C   0  0  0  0  0  0
   -1.7705    4.7924    1.6754 C   0  0  0  0  0  0
   -1.1216    5.1456    2.8557 N   0  0  0  0  0  0
   -2.4650    5.5667    1.0161 O   0  0  0  0  0  0
    1.6655   -0.4371   -0.1171 C   0  0  0  0  0  0
    2.0887   -0.6812   -1.5871 C   0  0  0  0  0  0
    3.2891   -0.6921   -1.8568 O   0  0  0  0  0  0
    1.1308   -0.8901   -2.5117 N   0  0  0  0  0  0
    1.3271   -1.1194   -3.9433 C   0  0  0  0  0  0
    0.4323   -0.2837   -4.8491 C   0  0  0  0  0  0
   -0.4079    0.6984   -4.4516 C   0  0  0  0  0  0
   -1.2877    1.4576   -5.3368 C   0  0  0  0  0  0
   -1.2394    1.0779   -6.6381 O   0  0  0  0  0  0
   -2.0127    2.3543   -4.9013 O   0  0  0  0  0  0
   -2.0559    1.7144   -7.6103 C   0  0  0  0  0  0
    0.5314    4.9929    4.7155 C   0  0  0  0  0  0
    1.4127    4.0572    5.5616 C   0  0  0  0  0  0
    2.2361    4.8058    6.6181 C   0  0  0  0  0  0
   -0.9225    3.4939    4.1389 H   0  0  0  0  0  0
    0.3906    3.6769    3.0186 H   0  0  0  0  0  0
   -2.0902    0.9738    0.8807 H   0  0  0  0  0  0
   -1.6602    3.5185   -0.7192 H   0  0  0  0  0  0
   -3.1357    3.0573    0.1127 H   0  0  0  0  0  0
    0.6119   -2.2391    1.6818 H   0  0  0  0  0  0
   -0.8549   -4.1300    2.0747 H   0  0  0  0  0  0
   -3.0499   -4.2645    0.9492 H   0  0  0  0  0  0
   -3.7395   -2.5201   -0.6062 H   0  0  0  0  0  0
   -4.4987    0.7721   -2.7910 H   0  0  0  0  0  0
   -5.4389   -0.0196   -4.9135 H   0  0  0  0  0  0
   -4.5225   -2.0386   -6.0009 H   0  0  0  0  0  0
   -2.6544   -3.2777   -4.9638 H   0  0  0  0  0  0
   -1.6880   -2.5061   -2.8478 H   0  0  0  0  0  0
   -1.2768    6.0762    3.2152 H   0  0  0  0  0  0
    2.2623    0.3841    0.2839 H   0  0  0  0  0  0
    1.9614   -1.3092    0.4610 H   0  0  0  0  0  0
    0.1777   -0.9650   -2.1868 H   0  0  0  0  0  0
    2.3595   -0.9402   -4.2494 H   0  0  0  0  0  0
    1.1475   -2.1755   -4.1471 H   0  0  0  0  0  0
    0.5036   -0.5437   -5.8959 H   0  0  0  0  0  0
   -0.4693    0.9684   -3.4076 H   0  0  0  0  0  0
   -1.8668    1.2814   -8.5926 H   0  0  0  0  0  0
   -1.8423    2.7831   -7.6627 H   0  0  0  0  0  0
   -3.1141    1.5825   -7.3783 H   0  0  0  0  0  0
    1.1634    5.7350    4.2245 H   0  0  0  0  0  0
   -0.1416    5.5457    5.3731 H   0  0  0  0  0  0
    0.7877    3.3129    6.0575 H   0  0  0  0  0  0
    2.0895    3.5025    4.9099 H   0  0  0  0  0  0
    2.8532    4.1140    7.1923 H   0  0  0  0  0  0
    1.5915    5.3348    7.3210 H   0  0  0  0  0  0
    2.9010    5.5370    6.1569 H   0  0  0  0  0  0
  1 23  1  0  0  0
  1 36  1  0  0  0
  1 39  1  0  0  0
  1 40  1  0  0  0
  2  3  2  0  0  0
  2 16  1  0  0  0
  2 10  1  0  0  0
  3  5  1  0  0  0
  4  6  1  0  0  0
  4 25  1  0  0  0
  4 11  1  0  0  0
  5  6  1  0  0  0
  5  7  1  0  0  0
  5 41  1  0  0  0
  6  9  2  0  0  0
  7  8  1  0  0  0
  7 42  1  0  0  0
  7 43  1  0  0  0
  8 22  1  0  0  0
 10 11  2  0  0  0
 10 15  1  0  0  0
 11 12  1  0  0  0
 12 13  2  0  0  0
 12 44  1  0  0  0
 13 14  1  0  0  0
 13 45  1  0  0  0
 14 15  2  0  0  0
 14 46  1  0  0  0
 15 47  1  0  0  0
 16 21  1  0  0  0
 16 17  2  0  0  0
 17 18  1  0  0  0
 17 48  1  0  0  0
 18 19  2  0  0  0
 18 49  1  0  0  0
 19 20  1  0  0  0
 19 50  1  0  0  0
 20 21  2  0  0  0
 20 51  1  0  0  0
 21 52  1  0  0  0
 22 23  1  0  0  0
 22 24  2  0  0  0
 23 53  1  0  0  0
 25 26  1  0  0  0
 25 54  1  0  0  0
 25 55  1  0  0  0
 26 27  2  0  0  0
 26 28  1  0  0  0
 28 29  1  0  0  0
 28 56  1  0  0  0
 29 30  1  0  0  0
 29 57  1  0  0  0
 29 58  1  0  0  0
 30 31  2  0  0  0
 30 59  1  0  0  0
 31 32  1  0  0  0
 31 60  1  0  0  0
 32 33  1  0  0  0
 32 34  2  0  0  0
 33 35  1  0  0  0
 35 61  1  0  0  0
 35 62  1  0  0  0
 35 63  1  0  0  0
 36 37  1  0  0  0
 36 64  1  0  0  0
 36 65  1  0  0  0
 37 38  1  0  0  0
 37 66  1  0  0  0
 37 67  1  0  0  0
 38 68  1  0  0  0
 38 69  1  0  0  0
 38 70  1  0  0  0
M  END
> <chembl_id>
CHEMBL1171093

> <chembl_pref_name>
None

> <i_m_ct_stereo_status>
1

> <s_m_source_file>
sdf/inactives_sanitized.sdf

> <i_m_source_file_index>
392

> <i_lp_mmshare_version>
49012

> <i_f3d_flags>
0

> <s_epik_input>
W2NIXTFbY0hdW2NIXVtjSF1bY0hdYzFDMj1OW0NASF0oW0NIMl1PQyg9TylbTkhdW0NIMl1bQ0gyXVtDSDJdW0NIM10pQyg9TylOKGMoYzIzKVtjSF1bY0hdW2NIXVtjSF0zKVtDSDJdQyg9TylbTkhdW0NIMl0vW0NIXT1bQ0hdL0MoPU8pT1tDSDNd

> <s_epik_cmdline>
J2VwaWtfcHl0aG9uJywgJy1waHQnLCAnMC41JywgJy1waCcsICc3LjUnLCAnLW50JywgJy1tYScsICcyMDAnLCAnLWltYWUnLCAnPGluZmlsZS5tYWU+JywgJy1vbWFlJywgJzxvdXRmaWxlLm1hZT4n

> <r_lp_tautomer_probability>
1

> <r_epik_Ionization_Penalty>
  0.0000

> <r_epik_Ionization_Penalty_Charging>
  0.0000

> <r_epik_Ionization_Penalty_Neutral>
  0.0000

> <r_epik_State_Penalty>
 -0.0000

> <r_epik_Charging_Adjusted_Penalty>
0

> <i_epik_Tot_Q>
0

> <i_epik_Tot_abs_Q>
0

> <s_epik_Chemistry_Notes>
This compound has an ester and may undergo hydrolysis at high or low pH. This compound has an imine and may undergo hydrolysis.

> <s_lp_Force_Field>
OPLS3e

> <r_lp_Energy>
59.372792

> <b_lp_Chiralities_Consistent>
1

> <s_lp_Variant>
sdf/inactives_sanitized.sdf:392-1

$$$$
sdf/inactives_sanitized.sdf:393
                    3D
 Schrodinger Suite 2020-1.
 56 60  0  0  1  0            999 V2000
   -2.2931   -2.4676   -0.3134 C   0  0  0  0  0  0
   -4.6147   -0.9524    0.4018 C   0  0  0  0  0  0
   -3.3121   -0.2811    0.4281 C   0  0  0  0  0  0
   -2.1066   -1.0603    0.0784 C   0  0  0  0  0  0
   -0.9092   -0.4146    0.1447 C   0  0  0  0  0  0
   -0.7995    0.9294    0.5337 N   0  0  0  0  0  0
   -1.9005    1.7289    0.7571 C   0  0  0  0  0  0
   -3.1732    1.0204    0.7666 C   0  0  0  0  0  0
   -1.8578    2.9525    0.9030 O   0  0  0  0  0  0
    0.3541    1.3082    1.2555 N   0  0  0  0  0  0
    0.3568   -1.1093   -0.2173 C   0  0  0  0  0  0
    0.9160   -2.0599    0.6402 C   0  0  0  0  0  0
    2.1513   -2.6288    0.3422 C   0  0  0  0  0  0
    2.8451   -2.2574   -0.8101 C   0  0  0  0  0  0
    2.2681   -1.3253   -1.6858 C   0  0  0  0  0  0
    1.0320   -0.7591   -1.3899 C   0  0  0  0  0  0
    4.0820   -2.8422   -1.0024 O   0  0  0  0  0  0
    4.8782   -2.4324   -2.1094 C   0  0  0  0  0  0
   -3.5342   -2.9982   -0.3378 C   0  0  0  0  0  0
   -4.6894   -2.2452    0.0219 C   0  0  0  0  0  0
   -5.7616   -3.0376   -0.0321 O   0  0  0  0  0  0
   -5.2241   -4.3371   -0.1407 C   0  0  0  0  0  0
   -3.8993   -4.2509   -0.6170 O   0  0  0  0  0  0
    1.3468    1.8994    0.5592 C   0  0  0  0  0  0
    1.1691    2.7782   -0.2866 O   0  0  0  0  0  0
    2.5304    1.3418    0.8865 N   0  0  0  0  0  0
    3.7719    1.4209    0.2297 C   0  0  0  0  0  0
    4.8366    0.7826    0.8665 C   0  0  0  0  0  0
    6.0983    0.7636    0.2802 C   0  0  0  0  0  0
    6.3165    1.3807   -0.9580 C   0  0  0  0  0  0
    5.2441    2.0186   -1.5972 C   0  0  0  0  0  0
    3.9810    2.0389   -1.0119 C   0  0  0  0  0  0
    7.6849    1.3374   -1.5691 C   0  0  0  0  0  0
    8.6468    0.7723   -1.0475 O   0  0  0  0  0  0
    7.9005    2.0383   -2.9121 C   0  0  0  0  0  0
   -1.4452   -3.0841   -0.5730 H   0  0  0  0  0  0
   -5.5071   -0.4173    0.6920 H   0  0  0  0  0  0
   -4.0514    1.5935    1.0288 H   0  0  0  0  0  0
    0.5910    0.5815    1.9149 H   0  0  0  0  0  0
    0.4064   -2.3386    1.5513 H   0  0  0  0  0  0
    2.5830   -3.3490    1.0215 H   0  0  0  0  0  0
    2.7707   -1.0146   -2.5891 H   0  0  0  0  0  0
    0.6133   -0.0204   -2.0583 H   0  0  0  0  0  0
    5.8281   -2.9662   -2.0869 H   0  0  0  0  0  0
    5.0995   -1.3645   -2.0697 H   0  0  0  0  0  0
    4.3931   -2.6627   -3.0591 H   0  0  0  0  0  0
   -5.2653   -4.8615    0.8164 H   0  0  0  0  0  0
   -5.8175   -4.9018   -0.8607 H   0  0  0  0  0  0
    2.5329    0.7455    1.7010 H   0  0  0  0  0  0
    4.6932    0.2897    1.8179 H   0  0  0  0  0  0
    6.9006    0.2591    0.8003 H   0  0  0  0  0  0
    5.3642    2.5013   -2.5560 H   0  0  0  0  0  0
    3.1854    2.5245   -1.5535 H   0  0  0  0  0  0
    7.2596    1.5970   -3.6754 H   0  0  0  0  0  0
    8.9382    1.9578   -3.2370 H   0  0  0  0  0  0
    7.6438    3.0947   -2.8310 H   0  0  0  0  0  0
  1 19  2  0  0  0
  1  4  1  0  0  0
  1 36  1  0  0  0
  2  3  1  0  0  0
  2 20  2  0  0  0
  2 37  1  0  0  0
  3  4  1  0  0  0
  3  8  2  0  0  0
  4  5  2  0  0  0
  5 11  1  0  0  0
  5  6  1  0  0  0
  6  7  1  0  0  0
  6 10  1  0  0  0
  7  8  1  0  0  0
  7  9  2  0  0  0
  8 38  1  0  0  0
 10 24  1  0  0  0
 10 39  1  0  0  0
 11 12  2  0  0  0
 11 16  1  0  0  0
 12 13  1  0  0  0
 12 40  1  0  0  0
 13 14  2  0  0  0
 13 41  1  0  0  0
 14 17  1  0  0  0
 14 15  1  0  0  0
 15 16  2  0  0  0
 15 42  1  0  0  0
 16 43  1  0  0  0
 17 18  1  0  0  0
 18 44  1  0  0  0
 18 45  1  0  0  0
 18 46  1  0  0  0
 19 20  1  0  0  0
 19 23  1  0  0  0
 20 21  1  0  0  0
 21 22  1  0  0  0
 22 23  1  0  0  0
 22 47  1  0  0  0
 22 48  1  0  0  0
 24 25  2  0  0  0
 24 26  1  0  0  0
 26 27  1  0  0  0
 26 49  1  0  0  0
 27 28  2  0  0  0
 27 32  1  0  0  0
 28 29  1  0  0  0
 28 50  1  0  0  0
 29 30  2  0  0  0
 29 51  1  0  0  0
 30 31  1  0  0  0
 30 33  1  0  0  0
 31 32  2  0  0  0
 31 52  1  0  0  0
 32 53  1  0  0  0
 33 34  2  0  0  0
 33 35  1  0  0  0
 35 54  1  0  0  0
 35 55  1  0  0  0
 35 56  1  0  0  0
M  END
> <chembl_id>
CHEMBL594623

> <chembl_pref_name>
None

> <s_m_source_file>
sdf/inactives_sanitized.sdf

> <i_m_source_file_index>
393

> <i_lp_mmshare_version>
49012

> <i_m_ct_stereo_status>
1

> <i_f3d_flags>
0

> <s_epik_input>
TzFbQ0gyXU9jKFtjSF0yKWMxW2NIXWMoYzIzKWMoLWM0W2NIXVtjSF1jKFtjSF1bY0hdNClPW0NIM10pbihjKD1PKVtjSF0zKVtOSF1DKD1PKVtOSF1jNVtjSF1bY0hdYyhbY0hdW2NIXTUpQyg9TylbQ0gzXQ==

> <s_epik_cmdline>
J2VwaWtfcHl0aG9uJywgJy1waHQnLCAnMC41JywgJy1waCcsICc3LjUnLCAnLW50JywgJy1tYScsICcyMDAnLCAnLWltYWUnLCAnPGluZmlsZS5tYWU+JywgJy1vbWFlJywgJzxvdXRmaWxlLm1hZT4n

> <r_lp_tautomer_probability>
1

> <r_epik_Ionization_Penalty>
  0.0000

> <r_epik_Ionization_Penalty_Charging>
  0.0000

> <r_epik_Ionization_Penalty_Neutral>
  0.0000

> <r_epik_State_Penalty>
 -0.0000

> <r_epik_Charging_Adjusted_Penalty>
1.94746745204686e-07

> <i_epik_Tot_Q>
0

> <i_epik_Tot_abs_Q>
0

> <s_epik_Chemistry_Notes>
This compound contains an acetal/aminal-like group ( X-CH(R)-Y where X, Y are N, S, or O) that may be acid/base labile, releasing an aldehyde.

> <s_lp_Force_Field>
OPLS3e

> <r_lp_Energy>
85.995354

> <b_lp_Chiralities_Consistent>
1

> <s_lp_Variant>
sdf/inactives_sanitized.sdf:393-1

$$$$
sdf/inactives_sanitized.sdf:394
                    3D
 Schrodinger Suite 2020-1.
 64 65  0  0  1  0            999 V2000
   -0.7338   -0.2521   -2.5380 C   0  0  0  0  0  0
   -0.6316   -0.7392   -1.2894 N   0  0  0  0  0  0
   -0.4109    0.8984   -2.8393 O   0  0  0  0  0  0
   -0.1066   -0.0040   -0.1359 C   0  0  2  0  0  0
    1.4178    0.1895   -0.2061 C   0  0  0  0  0  0
    2.1224   -0.6660   -0.7440 O   0  0  0  0  0  0
    1.8885    1.3094    0.3645 N   0  0  0  0  0  0
    3.3000    1.6937    0.4070 C   0  0  2  0  0  0
    3.5651    2.5855    1.6363 C   0  0  0  0  0  0
    4.6736    2.3307    2.3379 N   0  0  0  0  0  0
    2.7950    3.5029    1.9193 O   0  0  0  0  0  0
   -0.5028   -0.7380    1.1618 C   0  0  0  0  0  0
    3.6745    2.3817   -0.9292 C   0  0  0  0  0  0
   -1.9921   -0.7278    1.4591 C   0  0  0  0  0  0
   -2.8237   -1.7667    0.9881 C   0  0  0  0  0  0
   -4.1969   -1.7001    1.1843 C   0  0  0  0  0  0
   -4.7611   -0.5996    1.8175 C   0  0  0  0  0  0
   -3.9594    0.4498    2.2493 C   0  0  0  0  0  0
   -2.5840    0.4019    2.0630 C   0  0  0  0  0  0
    5.1491    2.8094   -1.0450 C   0  0  0  0  0  0
    5.4809    3.3977   -2.4239 C   0  0  0  0  0  0
    6.9484    3.8323   -2.5415 C   0  0  0  0  0  0
    7.2357    4.3916   -3.8734 N   0  3  0  0  0  0
   -1.2853   -1.2199   -3.5952 C   0  0  0  0  0  0
   -1.9845   -0.5260   -4.7847 C   0  0  0  0  0  0
   -2.5775   -1.5236   -5.7697 C   0  0  0  0  0  0
   -3.8693   -2.0177   -5.5673 C   0  0  0  0  0  0
   -4.4105   -2.9364   -6.4630 C   0  0  0  0  0  0
   -3.6584   -3.3577   -7.5577 C   0  0  0  0  0  0
   -2.3700   -2.8693   -7.7649 C   0  0  0  0  0  0
   -1.8278   -1.9513   -6.8692 C   0  0  0  0  0  0
   -0.9104   -1.6925   -1.1087 H   0  0  0  0  0  0
   -0.5688    0.9854   -0.1254 H   0  0  0  0  0  0
    1.2452    1.9564    0.7978 H   0  0  0  0  0  0
    3.8985    0.7849    0.5069 H   0  0  0  0  0  0
    5.2858    1.5736    2.0714 H   0  0  0  0  0  0
    4.8993    2.8912    3.1469 H   0  0  0  0  0  0
   -0.1586   -1.7731    1.1261 H   0  0  0  0  0  0
    0.0072   -0.2843    2.0134 H   0  0  0  0  0  0
    3.4503    1.7007   -1.7516 H   0  0  0  0  0  0
    3.0367    3.2543   -1.0806 H   0  0  0  0  0  0
   -2.3958   -2.6173    0.4780 H   0  0  0  0  0  0
   -4.8298   -2.5034    0.8365 H   0  0  0  0  0  0
   -5.8303   -0.5538    1.9642 H   0  0  0  0  0  0
   -4.4082    1.3097    2.7244 H   0  0  0  0  0  0
   -1.9701    1.2308    2.3840 H   0  0  0  0  0  0
    5.3852    3.5500   -0.2804 H   0  0  0  0  0  0
    5.7912    1.9493   -0.8509 H   0  0  0  0  0  0
    5.2560    2.6596   -3.1953 H   0  0  0  0  0  0
    4.8296    4.2513   -2.6183 H   0  0  0  0  0  0
    7.1829    4.5844   -1.7872 H   0  0  0  0  0  0
    7.6107    2.9833   -2.3678 H   0  0  0  0  0  0
    8.2061    4.6681   -3.9222 H   0  0  0  0  0  0
    6.6489    5.1977   -4.0357 H   0  0  0  0  0  0
   -0.4551   -1.8222   -3.9665 H   0  0  0  0  0  0
   -1.9814   -1.9163   -3.1236 H   0  0  0  0  0  0
   -2.7815    0.1309   -4.4310 H   0  0  0  0  0  0
   -1.2847    0.1200   -5.3186 H   0  0  0  0  0  0
   -4.4518   -1.6935   -4.7171 H   0  0  0  0  0  0
   -5.4078   -3.3211   -6.3093 H   0  0  0  0  0  0
   -4.0780   -4.0705   -8.2520 H   0  0  0  0  0  0
   -1.7940   -3.2022   -8.6158 H   0  0  0  0  0  0
   -0.8275   -1.5757   -7.0295 H   0  0  0  0  0  0
    7.0498    3.6942   -4.5802 H   0  0  0  0  0  0
  1  2  1  0  0  0
  1  3  2  0  0  0
  1 24  1  0  0  0
  2  4  1  0  0  0
  2 32  1  0  0  0
  4  5  1  0  0  0
  4 12  1  0  0  0
  4 33  1  0  0  0
  5  6  2  0  0  0
  5  7  1  0  0  0
  7  8  1  0  0  0
  7 34  1  0  0  0
  8  9  1  0  0  0
  8 13  1  0  0  0
  8 35  1  0  0  0
  9 10  1  0  0  0
  9 11  2  0  0  0
 10 36  1  0  0  0
 10 37  1  0  0  0
 12 14  1  0  0  0
 12 38  1  0  0  0
 12 39  1  0  0  0
 13 20  1  0  0  0
 13 40  1  0  0  0
 13 41  1  0  0  0
 14 15  2  0  0  0
 14 19  1  0  0  0
 15 16  1  0  0  0
 15 42  1  0  0  0
 16 17  2  0  0  0
 16 43  1  0  0  0
 17 18  1  0  0  0
 17 44  1  0  0  0
 18 19  2  0  0  0
 18 45  1  0  0  0
 19 46  1  0  0  0
 20 21  1  0  0  0
 20 47  1  0  0  0
 20 48  1  0  0  0
 21 22  1  0  0  0
 21 49  1  0  0  0
 21 50  1  0  0  0
 22 23  1  0  0  0
 22 51  1  0  0  0
 22 52  1  0  0  0
 23 53  1  0  0  0
 23 54  1  0  0  0
 23 64  1  0  0  0
 24 25  1  0  0  0
 24 55  1  0  0  0
 24 56  1  0  0  0
 25 26  1  0  0  0
 25 57  1  0  0  0
 25 58  1  0  0  0
 26 27  2  0  0  0
 26 31  1  0  0  0
 27 28  1  0  0  0
 27 59  1  0  0  0
 28 29  2  0  0  0
 28 60  1  0  0  0
 29 30  1  0  0  0
 29 61  1  0  0  0
 30 31  2  0  0  0
 30 62  1  0  0  0
 31 63  1  0  0  0
M  CHG  1  23   1
M  END
> <chembl_id>
CHEMBL2382078

> <chembl_pref_name>
None

> <i_m_ct_stereo_status>
1

> <s_m_source_file>
sdf/inactives_sanitized.sdf

> <i_m_source_file_index>
394

> <i_lp_mmshare_version>
49012

> <i_f3d_flags>
0

> <s_epik_input>
W2NIXTFbY0hdW2NIXVtjSF1bY0hdYzFbQ0gyXVtDSDJdQyg9TylbTkhdW0NAQEhdKFtDSDJdYzJbY0hdW2NIXVtjSF1bY0hdW2NIXTIpQyg9TylbTkhdW0NASF0oQyg9TylbTkgyXSlbQ0gyXVtDSDJdW0NIMl1bQ0gyXVtOSDJd

> <s_epik_cmdline>
J2VwaWtfcHl0aG9uJywgJy1waHQnLCAnMC41JywgJy1waCcsICc3LjUnLCAnLW50JywgJy1tYScsICcyMDAnLCAnLWltYWUnLCAnPGluZmlsZS5tYWU+JywgJy1vbWFlJywgJzxvdXRmaWxlLm1hZT4n

> <r_lp_tautomer_probability>
1

> <r_epik_Ionization_Penalty>
  0.0014

> <r_epik_Ionization_Penalty_Charging>
  0.0014

> <r_epik_Ionization_Penalty_Neutral>
  0.0000

> <r_epik_State_Penalty>
 -0.0000

> <r_epik_Charging_Adjusted_Penalty>
0.00140340395202934

> <i_epik_Tot_Q>
1

> <i_epik_Tot_abs_Q>
1

> <s_lp_Force_Field>
OPLS3e

> <r_lp_Energy>
21.446377

> <b_lp_Chiralities_Consistent>
1

> <s_lp_Variant>
sdf/inactives_sanitized.sdf:394-1

$$$$
sdf/inactives_sanitized.sdf:395
                    3D
 Schrodinger Suite 2020-1.
 64 65  0  0  1  0            999 V2000
   -0.7696   -0.5200   -2.6011 C   0  0  0  0  0  0
   -0.6321   -0.8813   -1.3108 N   0  0  0  0  0  0
   -0.3841    0.5648   -3.0429 O   0  0  0  0  0  0
   -0.0053   -0.0847   -0.2495 C   0  0  2  0  0  0
    1.5148    0.0781   -0.4608 C   0  0  0  0  0  0
    2.2130   -0.9145   -0.6764 O   0  0  0  0  0  0
    1.9935    1.3289   -0.3599 N   0  0  0  0  0  0
    3.4009    1.7033   -0.5153 C   0  0  2  0  0  0
    3.6610    3.0261    0.2358 C   0  0  0  0  0  0
    4.7856    3.0983    0.9538 N   0  0  0  0  0  0
    2.8742    3.9675    0.1365 O   0  0  0  0  0  0
   -0.3128   -0.7178    1.1310 C   0  0  0  0  0  0
    3.7441    1.7967   -2.0272 C   0  0  0  0  0  0
   -1.7899   -0.8237    1.4776 C   0  0  0  0  0  0
   -2.4809    0.2982    1.9823 C   0  0  0  0  0  0
   -3.8504    0.2296    2.2023 C   0  0  0  0  0  0
   -4.5506   -0.9316    1.9002 C   0  0  0  0  0  0
   -3.8908   -2.0308    1.3650 C   0  0  0  0  0  0
   -2.5217   -1.9823    1.1383 C   0  0  0  0  0  0
    5.2478    1.9376   -2.3294 C   0  0  0  0  0  0
    5.5465    1.9656   -3.8353 C   0  0  0  0  0  0
    7.0459    2.1025   -4.1346 C   0  0  0  0  0  0
    7.3034    2.1276   -5.5846 N   0  3  0  0  0  0
   -1.4771   -1.5138   -3.4932 C   0  0  0  0  0  0
   -1.4869   -2.8883   -3.1999 C   0  0  0  0  0  0
   -2.1457   -3.7896   -4.0356 C   0  0  0  0  0  0
   -2.8072   -3.3323   -5.1732 C   0  0  0  0  0  0
   -2.8172   -1.9690   -5.4780 C   0  0  0  0  0  0
   -2.1396   -1.0698   -4.6474 C   0  0  0  0  0  0
   -3.4585   -1.5211   -6.6103 O   0  0  0  0  0  0
   -4.7466   -1.0943   -6.5194 C   0  0  0  0  0  0
   -5.4457   -1.0604   -5.5040 O   0  0  0  0  0  0
   -5.2916   -0.6309   -7.8645 C   0  0  0  0  0  0
   -0.9871   -1.7805   -1.0215 H   0  0  0  0  0  0
   -0.4722    0.9032   -0.2627 H   0  0  0  0  0  0
    1.3577    2.0897   -0.1671 H   0  0  0  0  0  0
    4.0080    0.9165   -0.0605 H   0  0  0  0  0  0
    5.4118    2.3083    1.0071 H   0  0  0  0  0  0
    5.0100    3.9449    1.4564 H   0  0  0  0  0  0
    0.1215   -1.7178    1.1926 H   0  0  0  0  0  0
    0.1701   -0.1363    1.9189 H   0  0  0  0  0  0
    3.3885    0.8992   -2.5363 H   0  0  0  0  0  0
    3.2006    2.6255   -2.4852 H   0  0  0  0  0  0
   -1.9477    1.2123    2.1996 H   0  0  0  0  0  0
   -4.3750    1.0855    2.6008 H   0  0  0  0  0  0
   -5.6164   -0.9755    2.0702 H   0  0  0  0  0  0
   -4.4462   -2.9230    1.1159 H   0  0  0  0  0  0
   -2.0205   -2.8344    0.7023 H   0  0  0  0  0  0
    5.6320    2.8505   -1.8737 H   0  0  0  0  0  0
    5.7881    1.1112   -1.8659 H   0  0  0  0  0  0
    5.1623    1.0551   -4.2976 H   0  0  0  0  0  0
    5.0052    2.7942   -4.2946 H   0  0  0  0  0  0
    7.4379    3.0198   -3.6935 H   0  0  0  0  0  0
    7.5981    1.2710   -3.6949 H   0  0  0  0  0  0
    8.2948    2.2292   -5.7500 H   0  0  0  0  0  0
    6.8131    2.9059   -6.0019 H   0  0  0  0  0  0
   -0.9791   -3.2755   -2.3280 H   0  0  0  0  0  0
   -2.1423   -4.8438   -3.8013 H   0  0  0  0  0  0
   -3.3159   -4.0355   -5.8163 H   0  0  0  0  0  0
   -2.1472   -0.0191   -4.9034 H   0  0  0  0  0  0
   -4.7281    0.2301   -8.2243 H   0  0  0  0  0  0
   -6.3397   -0.3435   -7.7773 H   0  0  0  0  0  0
   -5.2146   -1.4307   -8.6010 H   0  0  0  0  0  0
    6.9809    1.2655   -6.0008 H   0  0  0  0  0  0
  1  2  1  0  0  0
  1  3  2  0  0  0
  1 24  1  0  0  0
  2  4  1  0  0  0
  2 34  1  0  0  0
  4  5  1  0  0  0
  4 12  1  0  0  0
  4 35  1  0  0  0
  5  6  2  0  0  0
  5  7  1  0  0  0
  7  8  1  0  0  0
  7 36  1  0  0  0
  8  9  1  0  0  0
  8 13  1  0  0  0
  8 37  1  0  0  0
  9 10  1  0  0  0
  9 11  2  0  0  0
 10 38  1  0  0  0
 10 39  1  0  0  0
 12 14  1  0  0  0
 12 40  1  0  0  0
 12 41  1  0  0  0
 13 20  1  0  0  0
 13 42  1  0  0  0
 13 43  1  0  0  0
 14 15  2  0  0  0
 14 19  1  0  0  0
 15 16  1  0  0  0
 15 44  1  0  0  0
 16 17  2  0  0  0
 16 45  1  0  0  0
 17 18  1  0  0  0
 17 46  1  0  0  0
 18 19  2  0  0  0
 18 47  1  0  0  0
 19 48  1  0  0  0
 20 21  1  0  0  0
 20 49  1  0  0  0
 20 50  1  0  0  0
 21 22  1  0  0  0
 21 51  1  0  0  0
 21 52  1  0  0  0
 22 23  1  0  0  0
 22 53  1  0  0  0
 22 54  1  0  0  0
 23 55  1  0  0  0
 23 56  1  0  0  0
 23 64  1  0  0  0
 24 25  2  0  0  0
 24 29  1  0  0  0
 25 26  1  0  0  0
 25 57  1  0  0  0
 26 27  2  0  0  0
 26 58  1  0  0  0
 27 28  1  0  0  0
 27 59  1  0  0  0
 28 29  2  0  0  0
 28 30  1  0  0  0
 29 60  1  0  0  0
 30 31  1  0  0  0
 31 32  2  0  0  0
 31 33  1  0  0  0
 33 61  1  0  0  0
 33 62  1  0  0  0
 33 63  1  0  0  0
M  CHG  1  23   1
M  END
> <chembl_id>
CHEMBL2382069

> <chembl_pref_name>
None

> <i_m_ct_stereo_status>
1

> <s_m_source_file>
sdf/inactives_sanitized.sdf

> <i_m_source_file_index>
395

> <i_lp_mmshare_version>
49012

> <i_f3d_flags>
0

> <s_epik_input>
Tz1DKFtDSDNdKU9jKFtjSF0xKVtjSF1bY0hdW2NIXWMxQyg9TylbTkhdW0NAQEhdKFtDSDJdYzJbY0hdW2NIXVtjSF1bY0hdW2NIXTIpQyg9TylbTkhdW0NASF0oQyg9TylbTkgyXSlbQ0gyXVtDSDJdW0NIMl1bQ0gyXVtOSDJd

> <s_epik_cmdline>
J2VwaWtfcHl0aG9uJywgJy1waHQnLCAnMC41JywgJy1waCcsICc3LjUnLCAnLW50JywgJy1tYScsICcyMDAnLCAnLWltYWUnLCAnPGluZmlsZS5tYWU+JywgJy1vbWFlJywgJzxvdXRmaWxlLm1hZT4n

> <r_lp_tautomer_probability>
1

> <r_epik_Ionization_Penalty>
  0.0014

> <r_epik_Ionization_Penalty_Charging>
  0.0014

> <r_epik_Ionization_Penalty_Neutral>
  0.0000

> <r_epik_State_Penalty>
 -0.0000

> <r_epik_Charging_Adjusted_Penalty>
0.00140340395202934

> <i_epik_Tot_Q>
1

> <i_epik_Tot_abs_Q>
1

> <s_lp_Force_Field>
OPLS3e

> <r_lp_Energy>
32.351255

> <b_lp_Chiralities_Consistent>
1

> <s_lp_Variant>
sdf/inactives_sanitized.sdf:395-1

$$$$
sdf/inactives_sanitized.sdf:396
                    3D
 Schrodinger Suite 2020-1.
 86 89  0  0  1  0            999 V2000
   -0.6429   -0.2212   -2.6118 C   0  0  0  0  0  0
   -0.9727   -0.5055   -1.3370 N   0  0  0  0  0  0
    0.1359    0.6843   -2.9183 O   0  0  0  0  0  0
   -0.5101    0.2078   -0.1448 C   0  0  2  0  0  0
    1.0105    0.0931    0.0516 C   0  0  0  0  0  0
    1.5428   -1.0175    0.0541 O   0  0  0  0  0  0
    1.6661    1.2527    0.2139 N   0  0  0  0  0  0
    3.1133    1.3724    0.4050 C   0  0  2  0  0  0
    3.5049    1.2162    1.8889 C   0  0  0  0  0  0
    4.6473    0.5710    2.1408 N   0  0  0  0  0  0
    2.8035    1.7009    2.7770 O   0  0  0  0  0  0
   -1.2559   -0.3288    1.0947 C   0  0  0  0  0  0
    3.5746    2.7402   -0.1423 C   0  0  0  0  0  0
   -2.7648   -0.1594    1.0480 C   0  0  0  0  0  0
   -3.3486    1.0943    1.3273 C   0  0  0  0  0  0
   -4.7196    1.2678    1.1879 C   0  0  0  0  0  0
   -5.5176    0.2182    0.7493 C   0  0  0  0  0  0
   -4.9516   -1.0111    0.4364 C   0  0  0  0  0  0
   -3.5834   -1.2047    0.5683 C   0  0  0  0  0  0
    3.3724    2.8902   -1.6612 C   0  0  0  0  0  0
    3.8901    4.2326   -2.1967 C   0  0  0  0  0  0
    3.6619    4.3884   -3.7068 C   0  0  0  0  0  0
    4.1549    5.6886   -4.1926 N   0  3  0  0  0  0
   -1.3020   -1.0758   -3.7323 C   0  0  2  0  0  0
   -1.4254   -0.3203   -5.0828 C   0  0  0  0  0  0
   -1.8766   -1.1385   -6.2599 C   0  0  0  0  0  0
   -2.6286   -1.6205   -3.3800 N   0  0  0  0  0  0
   -2.7739   -2.8232   -2.6993 C   0  0  0  0  0  0
   -3.1947   -2.0669   -7.8047 N   0  0  0  0  0  0
   -3.1358   -1.1771   -6.7527 C   0  0  0  0  0  0
   -1.9749   -2.6691   -8.0328 C   0  0  0  0  0  0
   -1.1096   -2.0995   -7.0488 C   0  0  0  0  0  0
    0.2310   -2.5526   -7.0349 C   0  0  0  0  0  0
    0.6866   -3.5166   -7.9579 C   0  0  0  0  0  0
   -0.1911   -4.0539   -8.9199 C   0  0  0  0  0  0
   -1.5317   -3.6295   -8.9596 C   0  0  0  0  0  0
   -4.0862   -3.0538   -2.5134 O   0  0  0  0  0  0
   -1.8654   -3.5609   -2.3100 O   0  0  0  0  0  0
   -4.5371   -4.2177   -1.8261 C   0  0  0  0  0  0
   -6.0550   -4.2427   -1.6612 C   0  0  0  0  0  0
   -6.6291   -5.3509   -1.0327 C   0  0  0  0  0  0
   -8.0082   -5.4198   -0.8544 C   0  0  0  0  0  0
   -8.8148   -4.3771   -1.3042 C   0  0  0  0  0  0
   -8.2544   -3.2670   -1.9312 C   0  0  0  0  0  0
   -6.8755   -3.1987   -2.1114 C   0  0  0  0  0  0
   -1.6081   -1.2705   -1.1613 H   0  0  0  0  0  0
   -0.7686    1.2611   -0.2722 H   0  0  0  0  0  0
    1.1476    2.1188    0.2111 H   0  0  0  0  0  0
    3.6065    0.5905   -0.1776 H   0  0  0  0  0  0
    5.1988    0.1914    1.3853 H   0  0  0  0  0  0
    4.9595    0.4502    3.0935 H   0  0  0  0  0  0
   -1.0299   -1.3868    1.2405 H   0  0  0  0  0  0
   -0.8885    0.1804    1.9874 H   0  0  0  0  0  0
    3.0542    3.5451    0.3796 H   0  0  0  0  0  0
    4.6353    2.8727    0.0771 H   0  0  0  0  0  0
   -2.7325    1.9209    1.6498 H   0  0  0  0  0  0
   -5.1660    2.2248    1.4143 H   0  0  0  0  0  0
   -6.5827    0.3613    0.6414 H   0  0  0  0  0  0
   -5.5773   -1.8171    0.0836 H   0  0  0  0  0  0
   -3.1501   -2.1585    0.3053 H   0  0  0  0  0  0
    3.8786    2.0732   -2.1769 H   0  0  0  0  0  0
    2.3136    2.7941   -1.9046 H   0  0  0  0  0  0
    3.3975    5.0482   -1.6654 H   0  0  0  0  0  0
    4.9550    4.3225   -1.9765 H   0  0  0  0  0  0
    4.1716    3.5933   -4.2527 H   0  0  0  0  0  0
    2.5991    4.3085   -3.9388 H   0  0  0  0  0  0
    3.9823    5.7660   -5.1851 H   0  0  0  0  0  0
    5.1472    5.7618   -4.0187 H   0  0  0  0  0  0
   -0.6167   -1.9066   -3.9180 H   0  0  0  0  0  0
   -2.1059    0.5267   -4.9758 H   0  0  0  0  0  0
   -0.4636    0.1123   -5.3630 H   0  0  0  0  0  0
   -3.4504   -1.0980   -3.6450 H   0  0  0  0  0  0
   -4.0442   -2.2436   -8.3213 H   0  0  0  0  0  0
   -3.9600   -0.5928   -6.3704 H   0  0  0  0  0  0
    0.9176   -2.1507   -6.3046 H   0  0  0  0  0  0
    1.7151   -3.8446   -7.9271 H   0  0  0  0  0  0
    0.1639   -4.7915   -9.6244 H   0  0  0  0  0  0
   -2.2127   -4.0387   -9.6912 H   0  0  0  0  0  0
   -4.2280   -5.1066   -2.3788 H   0  0  0  0  0  0
   -4.0784   -4.2622   -0.8368 H   0  0  0  0  0  0
   -6.0068   -6.1612   -0.6804 H   0  0  0  0  0  0
   -8.4505   -6.2774   -0.3691 H   0  0  0  0  0  0
   -9.8846   -4.4300   -1.1651 H   0  0  0  0  0  0
   -8.8868   -2.4620   -2.2760 H   0  0  0  0  0  0
   -6.4578   -2.3292   -2.5973 H   0  0  0  0  0  0
    3.6736    6.4340   -3.7099 H   0  0  0  0  0  0
  1  2  1  0  0  0
  1  3  2  0  0  0
  1 24  1  0  0  0
  2  4  1  0  0  0
  2 46  1  0  0  0
  4  5  1  0  0  0
  4 12  1  0  0  0
  4 47  1  0  0  0
  5  6  2  0  0  0
  5  7  1  0  0  0
  7  8  1  0  0  0
  7 48  1  0  0  0
  8  9  1  0  0  0
  8 13  1  0  0  0
  8 49  1  0  0  0
  9 10  1  0  0  0
  9 11  2  0  0  0
 10 50  1  0  0  0
 10 51  1  0  0  0
 12 14  1  0  0  0
 12 52  1  0  0  0
 12 53  1  0  0  0
 13 20  1  0  0  0
 13 54  1  0  0  0
 13 55  1  0  0  0
 14 15  2  0  0  0
 14 19  1  0  0  0
 15 16  1  0  0  0
 15 56  1  0  0  0
 16 17  2  0  0  0
 16 57  1  0  0  0
 17 18  1  0  0  0
 17 58  1  0  0  0
 18 19  2  0  0  0
 18 59  1  0  0  0
 19 60  1  0  0  0
 20 21  1  0  0  0
 20 61  1  0  0  0
 20 62  1  0  0  0
 21 22  1  0  0  0
 21 63  1  0  0  0
 21 64  1  0  0  0
 22 23  1  0  0  0
 22 65  1  0  0  0
 22 66  1  0  0  0
 23 67  1  0  0  0
 23 68  1  0  0  0
 23 86  1  0  0  0
 24 25  1  0  0  0
 24 27  1  0  0  0
 24 69  1  0  0  0
 25 26  1  0  0  0
 25 70  1  0  0  0
 25 71  1  0  0  0
 26 32  1  0  0  0
 26 30  2  0  0  0
 27 28  1  0  0  0
 27 72  1  0  0  0
 28 37  1  0  0  0
 28 38  2  0  0  0
 29 31  1  0  0  0
 29 30  1  0  0  0
 29 73  1  0  0  0
 30 74  1  0  0  0
 31 32  2  0  0  0
 31 36  1  0  0  0
 32 33  1  0  0  0
 33 34  2  0  0  0
 33 75  1  0  0  0
 34 35  1  0  0  0
 34 76  1  0  0  0
 35 36  2  0  0  0
 35 77  1  0  0  0
 36 78  1  0  0  0
 37 39  1  0  0  0
 39 40  1  0  0  0
 39 79  1  0  0  0
 39 80  1  0  0  0
 40 41  2  0  0  0
 40 45  1  0  0  0
 41 42  1  0  0  0
 41 81  1  0  0  0
 42 43  2  0  0  0
 42 82  1  0  0  0
 43 44  1  0  0  0
 43 83  1  0  0  0
 44 45  2  0  0  0
 44 84  1  0  0  0
 45 85  1  0  0  0
M  CHG  1  23   1
M  END
> <chembl_id>
CHEMBL2382080

> <chembl_pref_name>
None

> <i_m_ct_stereo_status>
1

> <s_m_source_file>
sdf/inactives_sanitized.sdf

> <i_m_source_file_index>
396

> <i_lp_mmshare_version>
49012

> <i_f3d_flags>
0

> <s_epik_input>
W05IMl1bQ0gyXVtDSDJdW0NIMl1bQ0gyXVtDQEBIXShDKD1PKVtOSDJdKVtOSF1DKD1PKVtDQEhdKFtDSDJdYzFbY0hdW2NIXVtjSF1bY0hdW2NIXTEpW05IXUMoPU8pW0NASF0oW0NIMl1jKFtjSF1bbkhdMiljKGMyMylbY0hdW2NIXVtjSF1bY0hdMylbTkhdQyg9TylPW0NIMl1jNFtjSF1bY0hdW2NIXVtjSF1bY0hdNA==

> <s_epik_cmdline>
J2VwaWtfcHl0aG9uJywgJy1waHQnLCAnMC41JywgJy1waCcsICc3LjUnLCAnLW50JywgJy1tYScsICcyMDAnLCAnLWltYWUnLCAnPGluZmlsZS5tYWU+JywgJy1vbWFlJywgJzxvdXRmaWxlLm1hZT4n

> <r_lp_tautomer_probability>
1

> <r_epik_Ionization_Penalty>
  0.0014

> <r_epik_Ionization_Penalty_Charging>
  0.0014

> <r_epik_Ionization_Penalty_Neutral>
  0.0000

> <r_epik_State_Penalty>
 -0.0000

> <r_epik_Charging_Adjusted_Penalty>
0.00140340395202934

> <i_epik_Tot_Q>
1

> <i_epik_Tot_abs_Q>
1

> <s_epik_Chemistry_Notes>
This compound has an ester and may undergo hydrolysis at high or low pH.

> <s_lp_Force_Field>
OPLS3e

> <r_lp_Energy>
27.739611

> <b_lp_Chiralities_Consistent>
1

> <s_lp_Variant>
sdf/inactives_sanitized.sdf:396-1

$$$$
sdf/inactives_sanitized.sdf:397
                    3D
 Schrodinger Suite 2020-1.
 65 66  0  0  1  0            999 V2000
   -1.7225    0.1230   -2.1980 C   0  0  0  0  0  0
   -0.6040   -0.3064   -1.5865 N   0  0  0  0  0  0
   -2.5008    0.9239   -1.6800 O   0  0  0  0  0  0
   -0.1152    0.1593   -0.2888 C   0  0  2  0  0  0
    1.3918    0.4270   -0.3852 C   0  0  0  0  0  0
    2.1269   -0.4064   -0.9174 O   0  0  0  0  0  0
    1.8196    1.5785    0.1556 N   0  0  0  0  0  0
    3.2139    2.0241    0.1839 C   0  0  2  0  0  0
    3.4051    3.0702    1.2998 C   0  0  0  0  0  0
    4.4865    2.9360    2.0732 N   0  0  0  0  0  0
    2.6035    3.9947    1.4312 O   0  0  0  0  0  0
   -0.4163   -0.8882    0.8056 C   0  0  0  0  0  0
    3.6167    2.5525   -1.2168 C   0  0  0  0  0  0
   -1.8920   -1.1138    1.0854 C   0  0  0  0  0  0
   -2.6134   -0.1918    1.8731 C   0  0  0  0  0  0
   -3.9832   -0.3456    2.0421 C   0  0  0  0  0  0
   -4.6530   -1.3901    1.4172 C   0  0  0  0  0  0
   -3.9623   -2.2838    0.6084 C   0  0  0  0  0  0
   -2.5926   -2.1473    0.4267 C   0  0  0  0  0  0
    5.0582    3.0856   -1.3191 C   0  0  0  0  0  0
    5.4521    3.4316   -2.7618 C   0  0  0  0  0  0
    6.8632    4.0257   -2.8663 C   0  0  0  0  0  0
    7.2065    4.3481   -4.2623 N   0  3  0  0  0  0
   -2.0578   -0.4501   -3.5876 C   0  0  0  0  0  0
   -0.8946   -1.0998   -4.3844 C   0  0  0  0  0  0
    0.2968   -0.1832   -4.6562 C   0  0  0  0  0  0
    0.1173    1.0077   -5.3663 C   0  0  0  0  0  0
    1.2030    1.8454   -5.6079 C   0  0  0  0  0  0
    2.4677    1.4883   -5.1440 C   0  0  0  0  0  0
    2.6549    0.3006   -4.4389 C   0  0  0  0  0  0
    1.5691   -0.5367   -4.1976 C   0  0  0  0  0  0
    3.5370    2.3078   -5.3874 O   0  0  0  0  0  0
   -0.0103   -0.9733   -2.0582 H   0  0  0  0  0  0
   -0.6038    1.0980   -0.0185 H   0  0  0  0  0  0
    1.1522    2.2053    0.5827 H   0  0  0  0  0  0
    3.8351    1.1554    0.4150 H   0  0  0  0  0  0
    5.1258    2.1678    1.9313 H   0  0  0  0  0  0
    4.6636    3.5994    2.8135 H   0  0  0  0  0  0
    0.0433   -1.8444    0.5495 H   0  0  0  0  0  0
    0.0502   -0.5747    1.7411 H   0  0  0  0  0  0
    3.4952    1.7502   -1.9453 H   0  0  0  0  0  0
    2.9262    3.3403   -1.5225 H   0  0  0  0  0  0
   -2.1042    0.6363    2.3441 H   0  0  0  0  0  0
   -4.5318    0.3554    2.6538 H   0  0  0  0  0  0
   -5.7191   -1.5001    1.5502 H   0  0  0  0  0  0
   -4.4939   -3.0819    0.1116 H   0  0  0  0  0  0
   -2.0672   -2.8327   -0.2222 H   0  0  0  0  0  0
    5.1692    3.9762   -0.6995 H   0  0  0  0  0  0
    5.7503    2.3427   -0.9203 H   0  0  0  0  0  0
    5.3968    2.5285   -3.3705 H   0  0  0  0  0  0
    4.7255    4.1302   -3.1795 H   0  0  0  0  0  0
    6.9366    4.9356   -2.2695 H   0  0  0  0  0  0
    7.6009    3.3233   -2.4763 H   0  0  0  0  0  0
    8.1374    4.7387   -4.2999 H   0  0  0  0  0  0
    6.5466    5.0207   -4.6267 H   0  0  0  0  0  0
   -2.8547   -1.1828   -3.4569 H   0  0  0  0  0  0
   -2.4891    0.3563   -4.1824 H   0  0  0  0  0  0
   -0.5689   -2.0124   -3.8815 H   0  0  0  0  0  0
   -1.2744   -1.4354   -5.3504 H   0  0  0  0  0  0
   -0.8610    1.2874   -5.7293 H   0  0  0  0  0  0
    1.0607    2.7660   -6.1552 H   0  0  0  0  0  0
    3.6347    0.0250   -4.0769 H   0  0  0  0  0  0
    1.7192   -1.4542   -3.6471 H   0  0  0  0  0  0
    4.3597    1.9435   -5.0546 H   0  0  0  0  0  0
    7.1736    3.5087   -4.8234 H   0  0  0  0  0  0
  1  2  1  0  0  0
  1  3  2  0  0  0
  1 24  1  0  0  0
  2  4  1  0  0  0
  2 33  1  0  0  0
  4  5  1  0  0  0
  4 12  1  0  0  0
  4 34  1  0  0  0
  5  6  2  0  0  0
  5  7  1  0  0  0
  7  8  1  0  0  0
  7 35  1  0  0  0
  8  9  1  0  0  0
  8 13  1  0  0  0
  8 36  1  0  0  0
  9 10  1  0  0  0
  9 11  2  0  0  0
 10 37  1  0  0  0
 10 38  1  0  0  0
 12 14  1  0  0  0
 12 39  1  0  0  0
 12 40  1  0  0  0
 13 20  1  0  0  0
 13 41  1  0  0  0
 13 42  1  0  0  0
 14 15  2  0  0  0
 14 19  1  0  0  0
 15 16  1  0  0  0
 15 43  1  0  0  0
 16 17  2  0  0  0
 16 44  1  0  0  0
 17 18  1  0  0  0
 17 45  1  0  0  0
 18 19  2  0  0  0
 18 46  1  0  0  0
 19 47  1  0  0  0
 20 21  1  0  0  0
 20 48  1  0  0  0
 20 49  1  0  0  0
 21 22  1  0  0  0
 21 50  1  0  0  0
 21 51  1  0  0  0
 22 23  1  0  0  0
 22 52  1  0  0  0
 22 53  1  0  0  0
 23 54  1  0  0  0
 23 55  1  0  0  0
 23 65  1  0  0  0
 24 25  1  0  0  0
 24 56  1  0  0  0
 24 57  1  0  0  0
 25 26  1  0  0  0
 25 58  1  0  0  0
 25 59  1  0  0  0
 26 27  2  0  0  0
 26 31  1  0  0  0
 27 28  1  0  0  0
 27 60  1  0  0  0
 28 29  2  0  0  0
 28 61  1  0  0  0
 29 30  1  0  0  0
 29 32  1  0  0  0
 30 31  2  0  0  0
 30 62  1  0  0  0
 31 63  1  0  0  0
 32 64  1  0  0  0
M  CHG  1  23   1
M  END
> <chembl_id>
CHEMBL2382079

> <chembl_pref_name>
None

> <i_m_ct_stereo_status>
1

> <s_m_source_file>
sdf/inactives_sanitized.sdf

> <i_m_source_file_index>
397

> <i_lp_mmshare_version>
49012

> <i_f3d_flags>
0

> <s_epik_input>
W2NIXTFbY0hdYyhbT0hdKVtjSF1bY0hdYzFbQ0gyXVtDSDJdQyg9TylbTkhdW0NAQEhdKFtDSDJdYzJbY0hdW2NIXVtjSF1bY0hdW2NIXTIpQyg9TylbTkhdW0NASF0oQyg9TylbTkgyXSlbQ0gyXVtDSDJdW0NIMl1bQ0gyXVtOSDJd

> <s_epik_cmdline>
J2VwaWtfcHl0aG9uJywgJy1waHQnLCAnMC41JywgJy1waCcsICc3LjUnLCAnLW50JywgJy1tYScsICcyMDAnLCAnLWltYWUnLCAnPGluZmlsZS5tYWU+JywgJy1vbWFlJywgJzxvdXRmaWxlLm1hZT4n

> <r_lp_tautomer_probability>
1

> <r_epik_Ionization_Penalty>
  0.0033

> <r_epik_Ionization_Penalty_Charging>
  0.0014

> <r_epik_Ionization_Penalty_Neutral>
  0.0019

> <r_epik_State_Penalty>
 -0.0000

> <r_epik_Charging_Adjusted_Penalty>
0.00140340395202934

> <i_epik_Tot_Q>
1

> <i_epik_Tot_abs_Q>
1

> <s_lp_Force_Field>
OPLS3e

> <r_lp_Energy>
15.857151

> <b_lp_Chiralities_Consistent>
1

> <s_lp_Variant>
sdf/inactives_sanitized.sdf:397-1

$$$$
sdf/inactives_sanitized.sdf:398
                    3D
 Schrodinger Suite 2020-1.
 75 77  0  0  1  0            999 V2000
   -2.8342   -3.9327   -7.1581 C   0  0  0  0  0  0
   -3.2936   -2.6423   -7.4112 C   0  0  0  0  0  0
   -2.8997   -1.5952   -6.5822 C   0  0  0  0  0  0
   -2.0518   -1.8388   -5.4987 C   0  0  0  0  0  0
   -1.5884   -3.1380   -5.2559 C   0  0  0  0  0  0
   -1.9822   -4.1848   -6.0853 C   0  0  0  0  0  0
   -1.6333   -0.6639   -4.6219 C   0  0  0  0  0  0
   -1.2997   -1.0827   -3.3011 O   0  0  0  0  0  0
   -0.8390   -0.1998   -2.3947 C   0  0  0  0  0  0
   -0.5573   -0.8759   -1.2120 N   0  0  0  0  0  0
   -0.6852    1.0075   -2.6022 O   0  0  0  0  0  0
   -0.0153   -0.1701   -0.0412 C   0  0  2  0  0  0
    1.5202   -0.0216   -0.1408 C   0  0  0  0  0  0
    2.2245   -1.0235   -0.2769 O   0  0  0  0  0  0
    1.9968    1.2285   -0.0221 N   0  0  0  0  0  0
    3.4178    1.5831    0.0124 C   0  0  2  0  0  0
    4.0034    1.3861    1.4289 C   0  0  0  0  0  0
    5.2348    0.8741    1.5022 N   0  0  0  0  0  0
    3.3624    1.7228    2.4242 O   0  0  0  0  0  0
   -0.4627   -0.8514    1.2819 C   0  0  0  0  0  0
    3.5827    3.0474   -0.4647 C   0  0  0  0  0  0
   -0.0116   -0.1125    2.5445 C   0  0  0  0  0  0
    0.7334   -0.7862    3.5134 C   0  0  0  0  0  0
    1.1835   -0.1099    4.6436 C   0  0  0  0  0  0
    0.8925    1.2479    4.8323 C   0  0  0  0  0  0
    0.1249    1.9072    3.8628 C   0  0  0  0  0  0
   -0.3257    1.2355    2.7307 C   0  0  0  0  0  0
    3.2536    3.2501   -1.9565 C   0  0  0  0  0  0
    3.4302    4.7062   -2.4111 C   0  0  0  0  0  0
    3.1037    4.9015   -3.8988 C   0  0  0  0  0  0
    3.2768    6.3065   -4.3060 N   0  3  0  0  0  0
    1.3929    1.9782    6.0366 C   0  0  0  0  0  0
    0.6270    2.9917    6.6296 C   0  0  0  0  0  0
    1.0920    3.6756    7.7493 C   0  0  0  0  0  0
    2.3349    3.3559    8.2936 C   0  0  0  0  0  0
    3.1100    2.3505    7.7162 C   0  0  0  0  0  0
    2.6404    1.6683    6.5968 C   0  0  0  0  0  0
    2.8338    4.1035    9.5169 C   0  0  0  0  0  0
   -3.1397   -4.7448   -7.8012 H   0  0  0  0  0  0
   -3.9511   -2.4540   -8.2473 H   0  0  0  0  0  0
   -3.2548   -0.5949   -6.7840 H   0  0  0  0  0  0
   -0.9217   -3.3432   -4.4310 H   0  0  0  0  0  0
   -1.6267   -5.1874   -5.8988 H   0  0  0  0  0  0
   -0.7815   -0.1656   -5.0877 H   0  0  0  0  0  0
   -2.4534    0.0547   -4.5686 H   0  0  0  0  0  0
   -0.6834   -1.8765   -1.1643 H   0  0  0  0  0  0
   -0.4648    0.8262   -0.0195 H   0  0  0  0  0  0
    1.3495    1.9924    0.1075 H   0  0  0  0  0  0
    3.9556    0.9328   -0.6821 H   0  0  0  0  0  0
    5.7322    0.6140    0.6632 H   0  0  0  0  0  0
    5.6700    0.7330    2.4023 H   0  0  0  0  0  0
   -1.5504   -0.9331    1.3158 H   0  0  0  0  0  0
   -0.0965   -1.8800    1.3042 H   0  0  0  0  0  0
    2.9594    3.7109    0.1384 H   0  0  0  0  0  0
    4.6114    3.3738   -0.2992 H   0  0  0  0  0  0
    0.9801   -1.8303    3.3883 H   0  0  0  0  0  0
    1.7615   -0.6541    5.3758 H   0  0  0  0  0  0
   -0.1139    2.9550    3.9706 H   0  0  0  0  0  0
   -0.9105    1.7715    1.9980 H   0  0  0  0  0  0
    3.8916    2.6012   -2.5578 H   0  0  0  0  0  0
    2.2278    2.9357   -2.1537 H   0  0  0  0  0  0
    2.7892    5.3516   -1.8088 H   0  0  0  0  0  0
    4.4554    5.0246   -2.2160 H   0  0  0  0  0  0
    3.7508    4.2758   -4.5146 H   0  0  0  0  0  0
    2.0753    4.6017   -4.1042 H   0  0  0  0  0  0
    3.0548    6.4049   -5.2867 H   0  0  0  0  0  0
    4.2340    6.5891   -4.1496 H   0  0  0  0  0  0
   -0.3432    3.2509    6.2320 H   0  0  0  0  0  0
    0.4845    4.4511    8.1925 H   0  0  0  0  0  0
    4.0753    2.0962    8.1291 H   0  0  0  0  0  0
    3.2630    0.9012    6.1602 H   0  0  0  0  0  0
    3.7910    3.7208    9.8735 H   0  0  0  0  0  0
    2.1101    4.0182   10.3283 H   0  0  0  0  0  0
    2.9465    5.1643    9.2911 H   0  0  0  0  0  0
    2.6606    6.8941   -3.7625 H   0  0  0  0  0  0
  1  2  2  0  0  0
  1  6  1  0  0  0
  1 39  1  0  0  0
  2  3  1  0  0  0
  2 40  1  0  0  0
  3  4  2  0  0  0
  3 41  1  0  0  0
  4  5  1  0  0  0
  4  7  1  0  0  0
  5  6  2  0  0  0
  5 42  1  0  0  0
  6 43  1  0  0  0
  7  8  1  0  0  0
  7 44  1  0  0  0
  7 45  1  0  0  0
  8  9  1  0  0  0
  9 10  1  0  0  0
  9 11  2  0  0  0
 10 12  1  0  0  0
 10 46  1  0  0  0
 12 13  1  0  0  0
 12 20  1  0  0  0
 12 47  1  0  0  0
 13 14  2  0  0  0
 13 15  1  0  0  0
 15 16  1  0  0  0
 15 48  1  0  0  0
 16 17  1  0  0  0
 16 21  1  0  0  0
 16 49  1  0  0  0
 17 18  1  0  0  0
 17 19  2  0  0  0
 18 50  1  0  0  0
 18 51  1  0  0  0
 20 22  1  0  0  0
 20 52  1  0  0  0
 20 53  1  0  0  0
 21 28  1  0  0  0
 21 54  1  0  0  0
 21 55  1  0  0  0
 22 23  2  0  0  0
 22 27  1  0  0  0
 23 24  1  0  0  0
 23 56  1  0  0  0
 24 25  2  0  0  0
 24 57  1  0  0  0
 25 26  1  0  0  0
 25 32  1  0  0  0
 26 27  2  0  0  0
 26 58  1  0  0  0
 27 59  1  0  0  0
 28 29  1  0  0  0
 28 60  1  0  0  0
 28 61  1  0  0  0
 29 30  1  0  0  0
 29 62  1  0  0  0
 29 63  1  0  0  0
 30 31  1  0  0  0
 30 64  1  0  0  0
 30 65  1  0  0  0
 31 66  1  0  0  0
 31 67  1  0  0  0
 31 75  1  0  0  0
 32 33  2  0  0  0
 32 37  1  0  0  0
 33 34  1  0  0  0
 33 68  1  0  0  0
 34 35  2  0  0  0
 34 69  1  0  0  0
 35 36  1  0  0  0
 35 38  1  0  0  0
 36 37  2  0  0  0
 36 70  1  0  0  0
 37 71  1  0  0  0
 38 72  1  0  0  0
 38 73  1  0  0  0
 38 74  1  0  0  0
M  CHG  1  31   1
M  END
> <chembl_id>
CHEMBL2382003

> <chembl_pref_name>
None

> <i_m_ct_stereo_status>
1

> <s_m_source_file>
sdf/inactives_sanitized.sdf

> <i_m_source_file_index>
398

> <i_lp_mmshare_version>
49012

> <i_f3d_flags>
0

> <s_epik_input>
W2NIXTFbY0hdW2NIXVtjSF1bY0hdYzFbQ0gyXU9DKD1PKVtOSF1bQ0BIXShDKD1PKVtOSF1bQ0BIXShDKD1PKVtOSDJdKVtDSDJdW0NIMl1bQ0gyXVtDSDJdW05IMl0pW0NIMl1jMltjSF1bY0hdYyhbY0hdW2NIXTIpLWMzW2NIXVtjSF1jKFtDSDNdKVtjSF1bY0hdMw==

> <s_epik_cmdline>
J2VwaWtfcHl0aG9uJywgJy1waHQnLCAnMC41JywgJy1waCcsICc3LjUnLCAnLW50JywgJy1tYScsICcyMDAnLCAnLWltYWUnLCAnPGluZmlsZS5tYWU+JywgJy1vbWFlJywgJzxvdXRmaWxlLm1hZT4n

> <r_lp_tautomer_probability>
1

> <r_epik_Ionization_Penalty>
  0.0014

> <r_epik_Ionization_Penalty_Charging>
  0.0014

> <r_epik_Ionization_Penalty_Neutral>
  0.0000

> <r_epik_State_Penalty>
 -0.0000

> <r_epik_Charging_Adjusted_Penalty>
0.00140340395202934

> <i_epik_Tot_Q>
1

> <i_epik_Tot_abs_Q>
1

> <s_epik_Chemistry_Notes>
This compound has an ester and may undergo hydrolysis at high or low pH.

> <s_lp_Force_Field>
OPLS3e

> <r_lp_Energy>
38.801211

> <b_lp_Chiralities_Consistent>
1

> <s_lp_Variant>
sdf/inactives_sanitized.sdf:398-1

$$$$
sdf/inactives_sanitized.sdf:399
                    3D
 Schrodinger Suite 2020-1.
 82 85  0  0  1  0            999 V2000
   -2.9876   -3.2930   -7.2116 C   0  0  0  0  0  0
   -3.9130   -2.4535   -6.5944 C   0  0  0  0  0  0
   -3.4678   -1.4323   -5.7588 C   0  0  0  0  0  0
   -2.0986   -1.2560   -5.5457 C   0  0  0  0  0  0
   -1.1747   -2.1009   -6.1653 C   0  0  0  0  0  0
   -1.6208   -3.1220   -7.0004 C   0  0  0  0  0  0
   -1.6106   -0.1428   -4.6379 C   0  0  0  0  0  0
   -1.3374   -0.6703   -3.3462 O   0  0  0  0  0  0
   -0.8440    0.1155   -2.3709 C   0  0  0  0  0  0
   -0.6805   -0.6495   -1.2213 N   0  0  0  0  0  0
   -0.5798    1.3148   -2.4967 O   0  0  0  0  0  0
   -0.1696   -0.0588    0.0266 C   0  0  2  0  0  0
    1.3731   -0.0514    0.0406 C   0  0  0  0  0  0
    1.9897   -1.1175    0.0758 O   0  0  0  0  0  0
    1.9555    1.1592    0.0197 N   0  0  0  0  0  0
    3.4009    1.4032    0.0287 C   0  0  2  0  0  0
    4.0155    1.1812    1.4291 C   0  0  0  0  0  0
    5.2464    0.6635    1.4663 N   0  0  0  0  0  0
    3.3983    1.5055    2.4434 O   0  0  0  0  0  0
   -0.7689   -0.7362    1.2895 C   0  0  0  0  0  0
    3.6675    2.8431   -0.4765 C   0  0  0  0  0  0
   -2.2995   -0.7552    1.3231 C   0  0  0  0  0  0
   -3.0386    0.4020    1.0637 C   0  0  0  0  0  0
   -4.4292    0.3662    1.0963 C   0  0  0  0  0  0
   -5.1124   -0.8204    1.3949 C   0  0  0  0  0  0
   -4.3598   -1.9714    1.6653 C   0  0  0  0  0  0
   -2.9684   -1.9402    1.6334 C   0  0  0  0  0  0
    3.3275    3.0480   -1.9653 C   0  0  0  0  0  0
    3.5792    4.4869   -2.4384 C   0  0  0  0  0  0
    3.2409    4.6847   -3.9230 C   0  0  0  0  0  0
    3.4774    6.0756   -4.3464 N   0  3  0  0  0  0
   -6.6076   -0.8559    1.4244 C   0  0  0  0  0  0
   -7.3068   -2.0049    1.0356 C   0  0  0  0  0  0
   -8.6982   -2.0376    1.0601 C   0  0  0  0  0  0
   -9.4366   -0.9230    1.4756 C   0  0  0  0  0  0
   -8.7376    0.2261    1.8642 C   0  0  0  0  0  0
   -7.3462    0.2593    1.8388 C   0  0  0  0  0  0
  -10.9314   -0.9593    1.5038 C   0  0  0  0  0  0
  -11.6480   -0.2584    2.4854 C   0  0  0  0  0  0
  -13.0397   -0.2923    2.5139 C   0  0  0  0  0  0
  -13.7310   -1.0295    1.5577 C   0  0  0  0  0  0
  -13.0409   -1.7314    0.5744 C   0  0  0  0  0  0
  -11.6493   -1.6956    0.5497 C   0  0  0  0  0  0
   -3.3328   -4.0850   -7.8599 H   0  0  0  0  0  0
   -4.9706   -2.5938   -6.7632 H   0  0  0  0  0  0
   -4.1853   -0.7822   -5.2791 H   0  0  0  0  0  0
   -0.1153   -1.9677   -5.9994 H   0  0  0  0  0  0
   -0.9108   -3.7780   -7.4822 H   0  0  0  0  0  0
   -0.7147    0.3074   -5.0693 H   0  0  0  0  0  0
   -2.3644    0.6442   -4.5778 H   0  0  0  0  0  0
   -0.8943   -1.6359   -1.2419 H   0  0  0  0  0  0
   -0.5040    0.9806    0.0719 H   0  0  0  0  0  0
    1.3724    1.9829    0.0001 H   0  0  0  0  0  0
    3.8652    0.7006   -0.6678 H   0  0  0  0  0  0
    5.7242    0.4150    0.6127 H   0  0  0  0  0  0
    5.7024    0.5087    2.3538 H   0  0  0  0  0  0
   -0.4028   -1.7639    1.3444 H   0  0  0  0  0  0
   -0.4161   -0.2423    2.1965 H   0  0  0  0  0  0
    3.1061    3.5600    0.1265 H   0  0  0  0  0  0
    4.7201    3.0955   -0.3341 H   0  0  0  0  0  0
   -2.5466    1.3355    0.8365 H   0  0  0  0  0  0
   -4.9720    1.2735    0.8762 H   0  0  0  0  0  0
   -4.8482   -2.9020    1.9137 H   0  0  0  0  0  0
   -2.4142   -2.8423    1.8482 H   0  0  0  0  0  0
    3.9183    2.3570   -2.5679 H   0  0  0  0  0  0
    2.2826    2.7910   -2.1442 H   0  0  0  0  0  0
    2.9846    5.1732   -1.8337 H   0  0  0  0  0  0
    4.6233    4.7495   -2.2623 H   0  0  0  0  0  0
    3.8466    4.0216   -4.5418 H   0  0  0  0  0  0
    2.1957    4.4348   -4.1099 H   0  0  0  0  0  0
    3.2465    6.1753   -5.3248 H   0  0  0  0  0  0
    4.4492    6.3128   -4.2059 H   0  0  0  0  0  0
   -6.7767   -2.8842    0.7004 H   0  0  0  0  0  0
   -9.1980   -2.9468    0.7600 H   0  0  0  0  0  0
   -9.2690    1.1109    2.1825 H   0  0  0  0  0  0
   -6.8473    1.1638    2.1544 H   0  0  0  0  0  0
  -11.1302    0.3104    3.2437 H   0  0  0  0  0  0
  -13.5800    0.2491    3.2765 H   0  0  0  0  0  0
  -14.8105   -1.0570    1.5787 H   0  0  0  0  0  0
  -13.5822   -2.3000   -0.1675 H   0  0  0  0  0  0
  -11.1328   -2.2390   -0.2277 H   0  0  0  0  0  0
    2.8980    6.6975   -3.8006 H   0  0  0  0  0  0
  1  2  2  0  0  0
  1  6  1  0  0  0
  1 44  1  0  0  0
  2  3  1  0  0  0
  2 45  1  0  0  0
  3  4  2  0  0  0
  3 46  1  0  0  0
  4  5  1  0  0  0
  4  7  1  0  0  0
  5  6  2  0  0  0
  5 47  1  0  0  0
  6 48  1  0  0  0
  7  8  1  0  0  0
  7 49  1  0  0  0
  7 50  1  0  0  0
  8  9  1  0  0  0
  9 10  1  0  0  0
  9 11  2  0  0  0
 10 12  1  0  0  0
 10 51  1  0  0  0
 12 13  1  0  0  0
 12 20  1  0  0  0
 12 52  1  0  0  0
 13 14  2  0  0  0
 13 15  1  0  0  0
 15 16  1  0  0  0
 15 53  1  0  0  0
 16 17  1  0  0  0
 16 21  1  0  0  0
 16 54  1  0  0  0
 17 18  1  0  0  0
 17 19  2  0  0  0
 18 55  1  0  0  0
 18 56  1  0  0  0
 20 22  1  0  0  0
 20 57  1  0  0  0
 20 58  1  0  0  0
 21 28  1  0  0  0
 21 59  1  0  0  0
 21 60  1  0  0  0
 22 23  2  0  0  0
 22 27  1  0  0  0
 23 24  1  0  0  0
 23 61  1  0  0  0
 24 25  2  0  0  0
 24 62  1  0  0  0
 25 26  1  0  0  0
 25 32  1  0  0  0
 26 27  2  0  0  0
 26 63  1  0  0  0
 27 64  1  0  0  0
 28 29  1  0  0  0
 28 65  1  0  0  0
 28 66  1  0  0  0
 29 30  1  0  0  0
 29 67  1  0  0  0
 29 68  1  0  0  0
 30 31  1  0  0  0
 30 69  1  0  0  0
 30 70  1  0  0  0
 31 71  1  0  0  0
 31 72  1  0  0  0
 31 82  1  0  0  0
 32 33  2  0  0  0
 32 37  1  0  0  0
 33 34  1  0  0  0
 33 73  1  0  0  0
 34 35  2  0  0  0
 34 74  1  0  0  0
 35 36  1  0  0  0
 35 38  1  0  0  0
 36 37  2  0  0  0
 36 75  1  0  0  0
 37 76  1  0  0  0
 38 39  2  0  0  0
 38 43  1  0  0  0
 39 40  1  0  0  0
 39 77  1  0  0  0
 40 41  2  0  0  0
 40 78  1  0  0  0
 41 42  1  0  0  0
 41 79  1  0  0  0
 42 43  2  0  0  0
 42 80  1  0  0  0
 43 81  1  0  0  0
M  CHG  1  31   1
M  END
> <chembl_id>
CHEMBL2382004

> <chembl_pref_name>
None

> <i_m_ct_stereo_status>
1

> <s_m_source_file>
sdf/inactives_sanitized.sdf

> <i_m_source_file_index>
399

> <i_lp_mmshare_version>
49012

> <i_f3d_flags>
0

> <s_epik_input>
W2NIXTFbY0hdW2NIXVtjSF1bY0hdYzFbQ0gyXU9DKD1PKVtOSF1bQ0BIXShDKD1PKVtOSF1bQ0BIXShDKD1PKVtOSDJdKVtDSDJdW0NIMl1bQ0gyXVtDSDJdW05IMl0pW0NIMl1jMltjSF1bY0hdYyhbY0hdW2NIXTIpLWMzW2NIXVtjSF1jKFtjSF1bY0hdMyktYzRbY0hdW2NIXVtjSF1bY0hdW2NIXTQ=

> <s_epik_cmdline>
J2VwaWtfcHl0aG9uJywgJy1waHQnLCAnMC41JywgJy1waCcsICc3LjUnLCAnLW50JywgJy1tYScsICcyMDAnLCAnLWltYWUnLCAnPGluZmlsZS5tYWU+JywgJy1vbWFlJywgJzxvdXRmaWxlLm1hZT4n

> <r_lp_tautomer_probability>
1

> <r_epik_Ionization_Penalty>
  0.0014

> <r_epik_Ionization_Penalty_Charging>
  0.0014

> <r_epik_Ionization_Penalty_Neutral>
  0.0000

> <r_epik_State_Penalty>
 -0.0000

> <r_epik_Charging_Adjusted_Penalty>
0.00140340395202934

> <i_epik_Tot_Q>
1

> <i_epik_Tot_abs_Q>
1

> <s_epik_Chemistry_Notes>
This compound has an ester and may undergo hydrolysis at high or low pH.

> <s_lp_Force_Field>
OPLS3e

> <r_lp_Energy>
53.819125

> <b_lp_Chiralities_Consistent>
1

> <s_lp_Variant>
sdf/inactives_sanitized.sdf:399-1

$$$$
sdf/inactives_sanitized.sdf:400
                    3D
 Schrodinger Suite 2020-1.
 53 57  0  0  1  0            999 V2000
   -4.7092   -2.4024   -0.3082 N   0  0  0  0  0  0
   -5.9777   -2.7537    0.0008 C   0  0  0  0  0  0
   -6.8990   -1.8744    0.5492 C   0  0  0  0  0  0
   -6.5063   -0.5629    0.7888 C   0  0  0  0  0  0
   -5.1827   -0.1406    0.4699 C   0  0  0  0  0  0
   -4.7210    1.1895    0.6845 C   0  0  0  0  0  0
   -3.4005    1.5105    0.3833 C   0  0  0  0  0  0
   -2.4976    0.5830   -0.1392 C   0  0  0  0  0  0
   -2.9359   -0.7395   -0.3931 C   0  0  0  0  0  0
   -4.2874   -1.1156   -0.0803 C   0  0  0  0  0  0
   -1.0902    1.0759   -0.4232 C   0  0  0  0  0  0
   -0.9032    2.1911   -0.9148 O   0  0  0  0  0  0
   -0.0875    0.2516   -0.0687 N   0  0  0  0  0  0
   -5.5992    2.2469    1.2171 N   0  3  0  0  0  0
   -5.2232    2.8519    2.2162 O   0  0  0  0  0  0
   -6.6432    2.4873    0.6191 O   0  5  0  0  0  0
   -2.1521   -1.6081   -0.9158 O   0  5  0  0  0  0
    1.3338    0.5150   -0.2851 C   0  0  0  0  0  0
    1.8016    0.4006   -1.7577 C   0  0  0  0  0  0
    1.4394   -0.9359   -2.4229 C   0  0  0  0  0  0
    1.8533   -0.9545   -3.9083 C   0  0  0  0  0  0
    3.2853   -0.6595   -4.1428 N   0  0  0  0  0  0
    3.7610    0.5117   -3.3708 C   0  0  0  0  0  0
    3.3250    0.5167   -1.8901 C   0  0  0  0  0  0
    3.9440   -1.0608   -5.2847 C   0  0  0  0  0  0
    5.1117   -0.6068   -5.6639 N   0  0  0  0  0  0
    3.2655   -2.3242   -6.3075 S   0  0  0  0  0  0
    4.6760   -2.1860   -7.3433 C   0  0  0  0  0  0
    5.5459   -1.2011   -6.8067 C   0  0  0  0  0  0
    6.7560   -0.9083   -7.4550 C   0  0  0  0  0  0
    7.0673   -1.6038   -8.6248 C   0  0  0  0  0  0
    6.2050   -2.5680   -9.1464 C   0  0  0  0  0  0
    4.9982   -2.8778   -8.5188 C   0  0  0  0  0  0
   -6.2510   -3.7793   -0.1991 H   0  0  0  0  0  0
   -7.9007   -2.2016    0.7855 H   0  0  0  0  0  0
   -7.2135    0.1272    1.2229 H   0  0  0  0  0  0
   -3.0746    2.5264    0.5646 H   0  0  0  0  0  0
   -0.3244   -0.6468    0.3274 H   0  0  0  0  0  0
    1.6602    1.4520    0.1699 H   0  0  0  0  0  0
    1.8477   -0.2555    0.2911 H   0  0  0  0  0  0
    1.3503    1.2119   -2.3327 H   0  0  0  0  0  0
    1.8600   -1.7884   -1.8867 H   0  0  0  0  0  0
    0.3632   -1.0979   -2.3567 H   0  0  0  0  0  0
    1.6128   -1.9501   -4.2787 H   0  0  0  0  0  0
    1.2522   -0.2532   -4.4886 H   0  0  0  0  0  0
    4.8514    0.5298   -3.3827 H   0  0  0  0  0  0
    3.4310    1.4206   -3.8760 H   0  0  0  0  0  0
    3.6544    1.4465   -1.4244 H   0  0  0  0  0  0
    3.8486   -0.2554   -1.3235 H   0  0  0  0  0  0
    7.4336   -0.1640   -7.0634 H   0  0  0  0  0  0
    7.9945   -1.3921   -9.1367 H   0  0  0  0  0  0
    6.4781   -3.0862  -10.0540 H   0  0  0  0  0  0
    4.3366   -3.6273   -8.9280 H   0  0  0  0  0  0
  1  2  2  0  0  0
  1 10  1  0  0  0
  2  3  1  0  0  0
  2 34  1  0  0  0
  3  4  2  0  0  0
  3 35  1  0  0  0
  4  5  1  0  0  0
  4 36  1  0  0  0
  5  6  2  0  0  0
  5 10  1  0  0  0
  6  7  1  0  0  0
  6 14  1  0  0  0
  7  8  2  0  0  0
  7 37  1  0  0  0
  8  9  1  0  0  0
  8 11  1  0  0  0
  9 10  2  0  0  0
  9 17  1  0  0  0
 11 12  2  0  0  0
 11 13  1  0  0  0
 13 18  1  0  0  0
 13 38  1  0  0  0
 14 15  2  0  0  0
 14 16  1  0  0  0
 18 19  1  0  0  0
 18 39  1  0  0  0
 18 40  1  0  0  0
 19 20  1  0  0  0
 19 24  1  0  0  0
 19 41  1  0  0  0
 20 21  1  0  0  0
 20 42  1  0  0  0
 20 43  1  0  0  0
 21 22  1  0  0  0
 21 44  1  0  0  0
 21 45  1  0  0  0
 22 23  1  0  0  0
 22 25  1  0  0  0
 23 24  1  0  0  0
 23 46  1  0  0  0
 23 47  1  0  0  0
 24 48  1  0  0  0
 24 49  1  0  0  0
 25 26  2  0  0  0
 25 27  1  0  0  0
 26 29  1  0  0  0
 27 28  1  0  0  0
 28 29  2  0  0  0
 28 33  1  0  0  0
 29 30  1  0  0  0
 30 31  2  0  0  0
 30 50  1  0  0  0
 31 32  1  0  0  0
 31 51  1  0  0  0
 32 33  2  0  0  0
 32 52  1  0  0  0
 33 53  1  0  0  0
M  CHG  3  14   1  16  -1  17  -1
M  END
> <chembl_id>
CHEMBL4228082

> <chembl_pref_name>
None

> <s_m_source_file>
sdf/inactives_sanitized.sdf

> <i_m_source_file_index>
400

> <i_lp_mmshare_version>
49012

> <i_m_ct_stereo_status>
1

> <i_f3d_flags>
0

> <s_epik_input>
W2NIXTFbY0hdW2NIXW5jKGMxMiljKFtPSF0pYyhbY0hdYzJbTitdKD1PKVtPLV0pQyg9TylbTkhdW0NIMl1bQ0hdM1tDSDJdW0NIMl1OKFtDSDJdW0NIMl0zKWMoczQpbmMoYzQ1KVtjSF1bY0hdW2NIXVtjSF01

> <s_epik_cmdline>
J2VwaWtfcHl0aG9uJywgJy1waHQnLCAnMC41JywgJy1waCcsICc3LjUnLCAnLW50JywgJy1tYScsICcyMDAnLCAnLWltYWUnLCAnPGluZmlsZS5tYWU+JywgJy1vbWFlJywgJzxvdXRmaWxlLm1hZT4n

> <r_lp_tautomer_probability>
1

> <r_epik_Ionization_Penalty>
  0.0030

> <r_epik_Ionization_Penalty_Charging>
  0.0000

> <r_epik_Ionization_Penalty_Neutral>
  0.0030

> <r_epik_State_Penalty>
 -0.0000

> <r_epik_Charging_Adjusted_Penalty>
3.05500451860748e-05

> <i_epik_Tot_Q>
-1

> <i_epik_Tot_abs_Q>
3

> <s_lp_Force_Field>
OPLS3e

> <r_lp_Energy>
47.230588

> <b_lp_Chiralities_Consistent>
1

> <s_lp_Variant>
sdf/inactives_sanitized.sdf:400-1

$$$$
sdf/inactives_sanitized.sdf:401
                    3D
 Schrodinger Suite 2020-1.
 42 44  0  0  1  0            999 V2000
   -0.6969   -1.2915   -0.0828 N   0  0  0  0  0  0
   -0.0401   -0.1076   -0.0577 C   0  0  0  0  0  0
   -0.6918    1.1179    0.0295 C   0  0  0  0  0  0
   -2.0810    1.1341    0.0677 C   0  0  0  0  0  0
   -2.8150   -0.0861    0.0223 C   0  0  0  0  0  0
   -4.2402   -0.1390    0.0590 C   0  0  0  0  0  0
   -4.8763   -1.3782    0.0514 C   0  0  0  0  0  0
   -4.1710   -2.5779   -0.0183 C   0  0  0  0  0  0
   -2.7657   -2.5603   -0.0644 C   0  0  0  0  0  0
   -2.0675   -1.3076   -0.0445 C   0  0  0  0  0  0
    1.4583   -0.1744   -0.0936 C   0  0  0  0  0  0
    2.0734   -0.2630    0.9708 O   0  0  0  0  0  0
    2.0603   -0.1204   -1.3115 N   0  0  0  0  0  0
   -4.9435   -3.8386   -0.0422 N   0  3  0  0  0  0
   -5.8213   -3.9863    0.8030 O   0  0  0  0  0  0
   -4.6957   -4.6600   -0.9197 O   0  5  0  0  0  0
   -5.0699    1.0790    0.1008 N   0  3  0  0  0  0
   -5.9048    1.1703    0.9950 O   0  0  0  0  0  0
   -4.9063    1.9210   -0.7763 O   0  5  0  0  0  0
   -2.1167   -3.6601   -0.1013 O   0  5  0  0  0  0
    1.3160    0.0471   -2.5687 C   0  0  0  0  0  0
    1.0349    1.4600   -2.8789 C   0  0  0  0  0  0
    0.8139    2.5694   -3.1220 N   0  0  0  0  0  0
    3.5179    0.0406   -1.4361 C   0  0  0  0  0  0
    3.9745    1.4785   -1.6431 C   0  0  0  0  0  0
    4.5003    1.8679   -2.8776 C   0  0  0  0  0  0
    4.9222    3.1808   -3.0699 C   0  0  0  0  0  0
    4.8263    4.0967   -2.0242 C   0  0  0  0  0  0
    4.3152    3.7111   -0.7867 C   0  0  0  0  0  0
    3.8914    2.3989   -0.5945 C   0  0  0  0  0  0
   -0.1378    2.0455    0.0625 H   0  0  0  0  0  0
   -2.5933    2.0813    0.1395 H   0  0  0  0  0  0
   -5.9568   -1.4083    0.0812 H   0  0  0  0  0  0
    0.3572   -0.4711   -2.5391 H   0  0  0  0  0  0
    1.8732   -0.3869   -3.3995 H   0  0  0  0  0  0
    3.8622   -0.5730   -2.2697 H   0  0  0  0  0  0
    4.0336   -0.3554   -0.5595 H   0  0  0  0  0  0
    4.5740    1.1599   -3.6902 H   0  0  0  0  0  0
    5.3215    3.4877   -4.0253 H   0  0  0  0  0  0
    5.1538    5.1151   -2.1736 H   0  0  0  0  0  0
    4.2483    4.4264    0.0197 H   0  0  0  0  0  0
    3.4970    2.1013    0.3663 H   0  0  0  0  0  0
  1  2  2  0  0  0
  1 10  1  0  0  0
  2  3  1  0  0  0
  2 11  1  0  0  0
  3  4  2  0  0  0
  3 31  1  0  0  0
  4  5  1  0  0  0
  4 32  1  0  0  0
  5  6  2  0  0  0
  5 10  1  0  0  0
  6  7  1  0  0  0
  6 17  1  0  0  0
  7  8  2  0  0  0
  7 33  1  0  0  0
  8  9  1  0  0  0
  8 14  1  0  0  0
  9 10  2  0  0  0
  9 20  1  0  0  0
 11 12  2  0  0  0
 11 13  1  0  0  0
 13 21  1  0  0  0
 13 24  1  0  0  0
 14 15  2  0  0  0
 14 16  1  0  0  0
 17 18  2  0  0  0
 17 19  1  0  0  0
 21 22  1  0  0  0
 21 34  1  0  0  0
 21 35  1  0  0  0
 22 23  3  0  0  0
 24 25  1  0  0  0
 24 36  1  0  0  0
 24 37  1  0  0  0
 25 26  2  0  0  0
 25 30  1  0  0  0
 26 27  1  0  0  0
 26 38  1  0  0  0
 27 28  2  0  0  0
 27 39  1  0  0  0
 28 29  1  0  0  0
 28 40  1  0  0  0
 29 30  2  0  0  0
 29 41  1  0  0  0
 30 42  1  0  0  0
M  CHG  5  14   1  16  -1  17   1  19  -1  20  -1
M  END
> <chembl_id>
CHEMBL4227036

> <chembl_pref_name>
None

> <s_m_source_file>
sdf/inactives_sanitized.sdf

> <i_m_source_file_index>
401

> <i_lp_mmshare_version>
49012

> <i_m_ct_stereo_status>
1

> <i_f3d_flags>
0

> <s_epik_input>
Tz1bTitdKFtPLV0pYzFbY0hdYyhbTitdKD1PKVtPLV0pYyhbT0hdKWMoYzEyKW5jKFtjSF1bY0hdMilDKD1PKU4oW0NIMl1DI04pW0NIMl1jM1tjSF1bY0hdW2NIXVtjSF1bY0hdMw==

> <s_epik_cmdline>
J2VwaWtfcHl0aG9uJywgJy1waHQnLCAnMC41JywgJy1waCcsICc3LjUnLCAnLW50JywgJy1tYScsICcyMDAnLCAnLWltYWUnLCAnPGluZmlsZS5tYWU+JywgJy1vbWFlJywgJzxvdXRmaWxlLm1hZT4n

> <r_lp_tautomer_probability>
1

> <r_epik_Ionization_Penalty>
  0.0000

> <r_epik_Ionization_Penalty_Charging>
  0.0000

> <r_epik_Ionization_Penalty_Neutral>
  0.0000

> <r_epik_State_Penalty>
 -0.0000

> <r_epik_Charging_Adjusted_Penalty>
1.96223819776615e-07

> <i_epik_Tot_Q>
-1

> <i_epik_Tot_abs_Q>
5

> <s_lp_Force_Field>
OPLS3e

> <r_lp_Energy>
50.841496

> <b_lp_Chiralities_Consistent>
1

> <s_lp_Variant>
sdf/inactives_sanitized.sdf:401-1

$$$$
sdf/inactives_sanitized.sdf:402
                    3D
 Schrodinger Suite 2020-1.
 83 86  0  0  1  0            999 V2000
   -0.9613   -0.6733  -10.8863 C   0  0  0  0  0  0
    0.4198   -0.4892  -10.8505 C   0  0  0  0  0  0
    1.1229   -0.7288   -9.6735 C   0  0  0  0  0  0
    0.4460   -1.1486   -8.5314 C   0  0  0  0  0  0
   -0.9472   -1.3259   -8.5517 C   0  0  0  0  0  0
   -1.6628   -1.0962   -9.7471 C   0  0  0  0  0  0
   -4.9447    0.5060   -3.5587 C   0  0  0  0  0  0
   -4.3091   -0.6093   -3.5818 N   0  0  0  0  0  0
   -2.6484    1.0415   -1.6067 N   0  0  0  0  0  0
   -2.8626   -0.5996   -3.4170 C   0  0  1  0  0  0
   -2.5185   -0.2893   -1.9398 C   0  0  0  0  0  0
   -2.2907   -1.9630   -3.8883 C   0  0  0  0  0  0
   -2.2892   -2.0990   -5.3096 O   0  0  0  0  0  0
   -2.1498   -1.1851   -1.1729 O   0  0  0  0  0  0
   -4.2910    1.8376   -3.3508 C   0  0  0  0  0  0
   -3.2025    2.0733   -2.4462 C   0  0  0  0  0  0
   -2.7296    3.3962   -2.3419 C   0  0  0  0  0  0
   -3.2380    4.4376   -3.1080 C   0  0  0  0  0  0
   -4.2589    4.1914   -4.0099 C   0  0  0  0  0  0
   -4.7744    2.9080   -4.1271 C   0  0  0  0  0  0
   -6.4171    0.4766   -3.7274 C   0  0  0  0  0  0
   -7.0043   -0.3636   -4.6859 C   0  0  0  0  0  0
   -8.3876   -0.3922   -4.8422 C   0  0  0  0  0  0
   -9.1903    0.4137   -4.0392 C   0  0  0  0  0  0
   -8.6227    1.2474   -3.0795 C   0  0  0  0  0  0
   -7.2397    1.2782   -2.9218 C   0  0  0  0  0  0
   -1.3582   -1.4940   -6.0808 C   0  0  0  0  0  0
   -1.6413   -1.7710   -7.4127 N   0  0  0  0  0  0
   -0.4345   -0.8001   -5.6489 O   0  0  0  0  0  0
   -2.1669    1.4152   -0.2437 C   0  0  0  0  0  0
   -0.6236    1.4203   -0.1932 C   0  0  0  0  0  0
    0.0123    2.3374   -0.7136 O   0  0  0  0  0  0
   -0.0470    0.3580    0.3973 N   0  0  0  0  0  0
    1.3777    0.0261    0.3341 C   0  0  2  0  0  0
    1.6845   -0.6764   -0.9815 C   0  0  0  0  0  0
    1.8241   -0.8104    1.5575 C   0  0  0  0  0  0
    2.3457   -0.1185   -2.0173 C   0  0  0  0  0  0
    2.6114   -0.7904   -3.2887 C   0  0  0  0  0  0
    1.9776   -1.9826   -3.4370 O   0  0  0  0  0  0
    3.3520   -0.2879   -4.1361 O   0  0  0  0  0  0
    2.1515   -2.7576   -4.6147 C   0  0  0  0  0  0
    1.5365   -0.1946    2.9519 C   0  0  0  0  0  0
    2.2293    1.1663    3.1605 C   0  0  0  0  0  0
    1.9153   -1.1769    4.0754 C   0  0  0  0  0  0
    1.2590    0.0300  -12.2667 Cl  0  0  0  0  0  0
   -3.1851   -1.2902   -9.8239 C   0  0  0  0  0  0
   -3.4943   -2.5552   -9.5361 F   0  0  0  0  0  0
   -3.7889   -0.4905   -8.9438 F   0  0  0  0  0  0
   -3.6814   -1.0147  -11.0318 F   0  0  0  0  0  0
   -1.4828   -0.4849  -11.8135 H   0  0  0  0  0  0
    2.1943   -0.5949   -9.6430 H   0  0  0  0  0  0
    1.0213   -1.3435   -7.6387 H   0  0  0  0  0  0
   -2.3919    0.1634   -4.0438 H   0  0  0  0  0  0
   -1.2736   -2.1059   -3.5162 H   0  0  0  0  0  0
   -2.8795   -2.7795   -3.4680 H   0  0  0  0  0  0
   -1.9290    3.6429   -1.6633 H   0  0  0  0  0  0
   -2.8348    5.4343   -3.0036 H   0  0  0  0  0  0
   -4.6545    4.9934   -4.6155 H   0  0  0  0  0  0
   -5.5706    2.7580   -4.8432 H   0  0  0  0  0  0
   -6.3949   -0.9937   -5.3189 H   0  0  0  0  0  0
   -8.8359   -1.0372   -5.5836 H   0  0  0  0  0  0
  -10.2633    0.3903   -4.1603 H   0  0  0  0  0  0
   -9.2529    1.8670   -2.4586 H   0  0  0  0  0  0
   -6.8161    1.9268   -2.1677 H   0  0  0  0  0  0
   -2.5001   -2.2715   -7.5896 H   0  0  0  0  0  0
   -2.5452    2.3871    0.0740 H   0  0  0  0  0  0
   -2.5609    0.7180    0.4982 H   0  0  0  0  0  0
   -0.6507   -0.3636    0.7641 H   0  0  0  0  0  0
    1.9560    0.9526    0.3598 H   0  0  0  0  0  0
    1.3124   -1.6894   -1.0503 H   0  0  0  0  0  0
    1.3395   -1.7874    1.5039 H   0  0  0  0  0  0
    2.8936   -1.0125    1.4743 H   0  0  0  0  0  0
    2.7144    0.8944   -1.9370 H   0  0  0  0  0  0
    1.5172   -3.6429   -4.5723 H   0  0  0  0  0  0
    3.1873   -3.0845   -4.7158 H   0  0  0  0  0  0
    1.8801   -2.1896   -5.5052 H   0  0  0  0  0  0
    0.4613   -0.0267    3.0334 H   0  0  0  0  0  0
    3.3104    1.0866    3.0403 H   0  0  0  0  0  0
    2.0353    1.5584    4.1596 H   0  0  0  0  0  0
    1.8693    1.9139    2.4536 H   0  0  0  0  0  0
    2.9840   -1.3960    4.0715 H   0  0  0  0  0  0
    1.3828   -2.1231    3.9713 H   0  0  0  0  0  0
    1.6643   -0.7722    5.0566 H   0  0  0  0  0  0
  1  6  2  0  0  0
  1  2  1  0  0  0
  1 50  1  0  0  0
  2  3  2  0  0  0
  2 45  1  0  0  0
  3  4  1  0  0  0
  3 51  1  0  0  0
  4  5  2  0  0  0
  4 52  1  0  0  0
  5  6  1  0  0  0
  5 28  1  0  0  0
  6 46  1  0  0  0
  7 21  1  0  0  0
  7 15  1  0  0  0
  7  8  2  0  0  0
  8 10  1  0  0  0
  9 30  1  0  0  0
  9 16  1  0  0  0
  9 11  1  0  0  0
 10 12  1  0  0  0
 10 11  1  0  0  0
 10 53  1  0  0  0
 11 14  2  0  0  0
 12 13  1  0  0  0
 12 54  1  0  0  0
 12 55  1  0  0  0
 13 27  1  0  0  0
 15 16  2  0  0  0
 15 20  1  0  0  0
 16 17  1  0  0  0
 17 18  2  0  0  0
 17 56  1  0  0  0
 18 19  1  0  0  0
 18 57  1  0  0  0
 19 20  2  0  0  0
 19 58  1  0  0  0
 20 59  1  0  0  0
 21 26  1  0  0  0
 21 22  2  0  0  0
 22 23  1  0  0  0
 22 60  1  0  0  0
 23 24  2  0  0  0
 23 61  1  0  0  0
 24 25  1  0  0  0
 24 62  1  0  0  0
 25 26  2  0  0  0
 25 63  1  0  0  0
 26 64  1  0  0  0
 27 28  1  0  0  0
 27 29  2  0  0  0
 28 65  1  0  0  0
 30 31  1  0  0  0
 30 66  1  0  0  0
 30 67  1  0  0  0
 31 32  2  0  0  0
 31 33  1  0  0  0
 33 34  1  0  0  0
 33 68  1  0  0  0
 34 35  1  0  0  0
 34 36  1  0  0  0
 34 69  1  0  0  0
 35 37  2  0  0  0
 35 70  1  0  0  0
 36 42  1  0  0  0
 36 71  1  0  0  0
 36 72  1  0  0  0
 37 38  1  0  0  0
 37 73  1  0  0  0
 38 39  1  0  0  0
 38 40  2  0  0  0
 39 41  1  0  0  0
 41 74  1  0  0  0
 41 75  1  0  0  0
 41 76  1  0  0  0
 42 43  1  0  0  0
 42 44  1  0  0  0
 42 77  1  0  0  0
 43 78  1  0  0  0
 43 79  1  0  0  0
 43 80  1  0  0  0
 44 81  1  0  0  0
 44 82  1  0  0  0
 44 83  1  0  0  0
 46 47  1  0  0  0
 46 48  1  0  0  0
 46 49  1  0  0  0
M  END
> <chembl_id>
CHEMBL1171803

> <chembl_pref_name>
None

> <i_m_ct_stereo_status>
1

> <s_m_source_file>
sdf/inactives_sanitized.sdf

> <i_m_source_file_index>
402

> <i_lp_mmshare_version>
49012

> <i_f3d_flags>
0

> <s_epik_input>
Q2xjMVtjSF1jKEMoRikoRilGKWMoW2NIXVtjSF0xKVtOSF1DKD1PKU9bQ0gyXVtDQEBIXShOPUMyYzNbY0hdW2NIXVtjSF1bY0hdW2NIXTMpQyg9TylOKGMoYzI0KVtjSF1bY0hdW2NIXVtjSF00KVtDSDJdQyg9TylbTkhdW0NAQEhdKFtDSDJdW0NIXShbQ0gzXSlbQ0gzXSkvW0NIXT1bQ0hdL0MoPU8pT1tDSDNd

> <s_epik_cmdline>
J2VwaWtfcHl0aG9uJywgJy1waHQnLCAnMC41JywgJy1waCcsICc3LjUnLCAnLW50JywgJy1tYScsICcyMDAnLCAnLWltYWUnLCAnPGluZmlsZS5tYWU+JywgJy1vbWFlJywgJzxvdXRmaWxlLm1hZT4n

> <r_lp_tautomer_probability>
1

> <r_epik_Ionization_Penalty>
  0.0001

> <r_epik_Ionization_Penalty_Charging>
  0.0000

> <r_epik_Ionization_Penalty_Neutral>
  0.0001

> <r_epik_State_Penalty>
 -0.0000

> <r_epik_Charging_Adjusted_Penalty>
0

> <i_epik_Tot_Q>
0

> <i_epik_Tot_abs_Q>
0

> <s_epik_Chemistry_Notes>
This compound has an ester and may undergo hydrolysis at high or low pH. This compound has an imine and may undergo hydrolysis.

> <s_lp_Force_Field>
OPLS3e

> <r_lp_Energy>
70.857788

> <b_lp_Chiralities_Consistent>
1

> <s_lp_Variant>
sdf/inactives_sanitized.sdf:402-1

$$$$
sdf/inactives_sanitized.sdf:403
                    3D
 Schrodinger Suite 2020-1.
 64 65  0  0  1  0            999 V2000
   -1.7464   -0.6990   -1.7750 C   0  0  0  0  0  0
   -0.4660   -0.7007   -1.3667 N   0  0  0  0  0  0
   -2.6569   -0.0936   -1.2078 O   0  0  0  0  0  0
    0.0577    0.0214   -0.2042 C   0  0  2  0  0  0
    1.5752    0.2664   -0.3549 C   0  0  0  0  0  0
    2.2872   -0.5609   -0.9289 O   0  0  0  0  0  0
    2.0423    1.3881    0.2188 N   0  0  0  0  0  0
    3.4542    1.7641    0.3059 C   0  0  2  0  0  0
    3.6963    2.4921    1.6453 C   0  0  0  0  0  0
    4.7801    2.1310    2.3383 N   0  0  0  0  0  0
    2.9306    3.3789    2.0229 O   0  0  0  0  0  0
   -0.2995   -0.7547    1.0953 C   0  0  0  0  0  0
    3.8252    2.6301   -0.9261 C   0  0  0  0  0  0
    0.1059   -0.0826    2.3995 C   0  0  0  0  0  0
    1.3353   -0.3989    3.0179 C   0  0  0  0  0  0
    1.7508    0.3064    4.1395 C   0  0  0  0  0  0
    0.9720    1.3402    4.6440 C   0  0  0  0  0  0
   -0.2250    1.6833    4.0280 C   0  0  0  0  0  0
   -0.6577    0.9908    2.9049 C   0  0  0  0  0  0
    5.3372    2.8683   -1.0964 C   0  0  0  0  0  0
    5.6719    3.6758   -2.3588 C   0  0  0  0  0  0
    7.1820    3.8917   -2.5314 C   0  0  0  0  0  0
    7.4787    4.6752   -3.7427 N   0  3  0  0  0  0
   -2.0163   -1.5176   -3.0143 C   0  0  0  0  0  0
   -1.4861   -1.1267   -4.2672 C   0  0  0  0  0  0
   -1.7482   -1.8996   -5.4021 C   0  0  0  0  0  0
   -2.5256   -3.0488   -5.3150 C   0  0  0  0  0  0
   -3.0543   -3.4370   -4.0893 C   0  0  0  0  0  0
   -2.8115   -2.6849   -2.9363 C   0  0  0  0  0  0
   -3.4118   -3.1814   -1.6222 C   0  0  0  0  0  0
   -0.6500    0.1395   -4.4486 C   0  0  0  0  0  0
    0.2159   -1.2274   -1.8937 H   0  0  0  0  0  0
   -0.4326    0.9969   -0.1548 H   0  0  0  0  0  0
    1.3975    2.0079    0.6889 H   0  0  0  0  0  0
    4.0558    0.8519    0.2916 H   0  0  0  0  0  0
    5.3876    1.4009    1.9962 H   0  0  0  0  0  0
    4.9905    2.5808    3.2174 H   0  0  0  0  0  0
   -1.3782   -0.9144    1.1393 H   0  0  0  0  0  0
    0.1354   -1.7556    1.0674 H   0  0  0  0  0  0
    3.4613    2.1402   -1.8313 H   0  0  0  0  0  0
    3.3067    3.5901   -0.8827 H   0  0  0  0  0  0
    1.9605   -1.1824    2.6154 H   0  0  0  0  0  0
    2.6887    0.0586    4.6140 H   0  0  0  0  0  0
    1.3048    1.8889    5.5127 H   0  0  0  0  0  0
   -0.8159    2.4992    4.4175 H   0  0  0  0  0  0
   -1.5767    1.2803    2.4162 H   0  0  0  0  0  0
    5.7275    3.3937   -0.2243 H   0  0  0  0  0  0
    5.8516    1.9072   -1.1320 H   0  0  0  0  0  0
    5.2730    3.1623   -3.2349 H   0  0  0  0  0  0
    5.1666    4.6418   -2.3129 H   0  0  0  0  0  0
    7.5920    4.4153   -1.6670 H   0  0  0  0  0  0
    7.6958    2.9321   -2.6011 H   0  0  0  0  0  0
    8.4778    4.7989   -3.8273 H   0  0  0  0  0  0
    7.0337    5.5798   -3.6791 H   0  0  0  0  0  0
   -1.3511   -1.6090   -6.3640 H   0  0  0  0  0  0
   -2.7208   -3.6378   -6.1990 H   0  0  0  0  0  0
   -3.6564   -4.3328   -4.0401 H   0  0  0  0  0  0
   -3.8782   -4.1624   -1.7224 H   0  0  0  0  0  0
   -4.1609   -2.4782   -1.2574 H   0  0  0  0  0  0
   -2.6384   -3.2664   -0.8582 H   0  0  0  0  0  0
   -0.5258    0.4043   -5.4994 H   0  0  0  0  0  0
    0.3364    0.0172   -4.0003 H   0  0  0  0  0  0
   -1.1337    0.9892   -3.9655 H   0  0  0  0  0  0
    7.1323    4.1864   -4.5560 H   0  0  0  0  0  0
  1  2  1  0  0  0
  1  3  2  0  0  0
  1 24  1  0  0  0
  2  4  1  0  0  0
  2 32  1  0  0  0
  4  5  1  0  0  0
  4 12  1  0  0  0
  4 33  1  0  0  0
  5  6  2  0  0  0
  5  7  1  0  0  0
  7  8  1  0  0  0
  7 34  1  0  0  0
  8  9  1  0  0  0
  8 13  1  0  0  0
  8 35  1  0  0  0
  9 10  1  0  0  0
  9 11  2  0  0  0
 10 36  1  0  0  0
 10 37  1  0  0  0
 12 14  1  0  0  0
 12 38  1  0  0  0
 12 39  1  0  0  0
 13 20  1  0  0  0
 13 40  1  0  0  0
 13 41  1  0  0  0
 14 15  2  0  0  0
 14 19  1  0  0  0
 15 16  1  0  0  0
 15 42  1  0  0  0
 16 17  2  0  0  0
 16 43  1  0  0  0
 17 18  1  0  0  0
 17 44  1  0  0  0
 18 19  2  0  0  0
 18 45  1  0  0  0
 19 46  1  0  0  0
 20 21  1  0  0  0
 20 47  1  0  0  0
 20 48  1  0  0  0
 21 22  1  0  0  0
 21 49  1  0  0  0
 21 50  1  0  0  0
 22 23  1  0  0  0
 22 51  1  0  0  0
 22 52  1  0  0  0
 23 53  1  0  0  0
 23 54  1  0  0  0
 23 64  1  0  0  0
 24 25  2  0  0  0
 24 29  1  0  0  0
 25 26  1  0  0  0
 25 31  1  0  0  0
 26 27  2  0  0  0
 26 55  1  0  0  0
 27 28  1  0  0  0
 27 56  1  0  0  0
 28 29  2  0  0  0
 28 57  1  0  0  0
 29 30  1  0  0  0
 30 58  1  0  0  0
 30 59  1  0  0  0
 30 60  1  0  0  0
 31 61  1  0  0  0
 31 62  1  0  0  0
 31 63  1  0  0  0
M  CHG  1  23   1
M  END
> <chembl_id>
CHEMBL2382064

> <chembl_pref_name>
None

> <i_m_ct_stereo_status>
1

> <s_m_source_file>
sdf/inactives_sanitized.sdf

> <i_m_source_file_index>
403

> <i_lp_mmshare_version>
49012

> <i_f3d_flags>
0

> <s_epik_input>
W0NIM11jMVtjSF1bY0hdW2NIXWMoW0NIM10pYzFDKD1PKVtOSF1bQ0BASF0oW0NIMl1jMltjSF1bY0hdW2NIXVtjSF1bY0hdMilDKD1PKVtOSF1bQ0BIXShDKD1PKVtOSDJdKVtDSDJdW0NIMl1bQ0gyXVtDSDJdW05IMl0=

> <s_epik_cmdline>
J2VwaWtfcHl0aG9uJywgJy1waHQnLCAnMC41JywgJy1waCcsICc3LjUnLCAnLW50JywgJy1tYScsICcyMDAnLCAnLWltYWUnLCAnPGluZmlsZS5tYWU+JywgJy1vbWFlJywgJzxvdXRmaWxlLm1hZT4n

> <r_lp_tautomer_probability>
1

> <r_epik_Ionization_Penalty>
  0.0014

> <r_epik_Ionization_Penalty_Charging>
  0.0014

> <r_epik_Ionization_Penalty_Neutral>
  0.0000

> <r_epik_State_Penalty>
 -0.0000

> <r_epik_Charging_Adjusted_Penalty>
0.00140340395202934

> <i_epik_Tot_Q>
1

> <i_epik_Tot_abs_Q>
1

> <s_lp_Force_Field>
OPLS3e

> <r_lp_Energy>
30.530441

> <b_lp_Chiralities_Consistent>
1

> <s_lp_Variant>
sdf/inactives_sanitized.sdf:403-1

$$$$
sdf/inactives_sanitized.sdf:404
                    3D
 Schrodinger Suite 2020-1.
 58 59  0  0  1  0            999 V2000
   -2.9496    0.9014    2.3819 C   0  0  0  0  0  0
   -3.0533    1.3297    1.1078 N   0  0  0  0  0  0
   -2.2497   -0.0586    2.7127 O   0  0  0  0  0  0
   -2.3436    0.7719   -0.0482 C   0  0  2  0  0  0
   -0.8261    1.0589    0.0151 C   0  0  0  0  0  0
   -0.4299    2.2228    0.1020 O   0  0  0  0  0  0
   -0.0155   -0.0102   -0.0721 N   0  0  0  0  0  0
    1.4479    0.0510   -0.1128 C   0  0  2  0  0  0
    1.9327    0.4725   -1.5189 C   0  0  0  0  0  0
    2.8102    1.4778   -1.5769 N   0  0  0  0  0  0
    1.5425   -0.1315   -2.5172 O   0  0  0  0  0  0
   -3.0021    1.3043   -1.3472 C   0  0  0  0  0  0
    2.0024   -1.3348    0.3064 C   0  0  0  0  0  0
   -2.4311    0.7702   -2.6527 C   0  0  0  0  0  0
   -1.4450    1.4977   -3.3536 C   0  0  0  0  0  0
   -0.8634    0.9589   -4.4934 C   0  0  0  0  0  0
   -1.2261   -0.3083   -4.9320 C   0  0  0  0  0  0
   -2.1679   -1.0514   -4.2314 C   0  0  0  0  0  0
   -2.7637   -0.5291   -3.0907 C   0  0  0  0  0  0
    3.5260   -1.3663    0.5351 C   0  0  0  0  0  0
    4.0297   -2.7441    0.9891 C   0  0  0  0  0  0
    5.5516   -2.7734    1.1895 C   0  0  0  0  0  0
    6.0123   -4.1048    1.6194 N   0  3  0  0  0  0
   -3.7786    1.6440    3.4066 C   0  0  0  0  0  0
   -4.1282    1.0100    4.6076 C   0  0  0  0  0  0
   -4.8895    1.6766    5.5636 C   0  0  0  0  0  0
   -5.3034    2.9851    5.3287 C   0  0  0  0  0  0
   -4.9590    3.6326    4.1453 C   0  0  0  0  0  0
   -4.1989    2.9663    3.1877 C   0  0  0  0  0  0
   -6.3463    3.8955    6.6352 Br  0  0  0  0  0  0
   -3.6511    2.1181    0.9091 H   0  0  0  0  0  0
   -2.4940   -0.3104   -0.0350 H   0  0  0  0  0  0
   -0.4211   -0.9306   -0.1584 H   0  0  0  0  0  0
    1.7712    0.7873    0.6271 H   0  0  0  0  0  0
    3.1069    1.9472   -0.7338 H   0  0  0  0  0  0
    3.1680    1.7852   -2.4696 H   0  0  0  0  0  0
   -4.0658    1.0604   -1.3327 H   0  0  0  0  0  0
   -2.9588    2.3950   -1.3717 H   0  0  0  0  0  0
    1.5177   -1.6463    1.2338 H   0  0  0  0  0  0
    1.7312   -2.0895   -0.4347 H   0  0  0  0  0  0
   -1.1378    2.4731   -3.0055 H   0  0  0  0  0  0
   -0.1152    1.5210   -5.0326 H   0  0  0  0  0  0
   -0.7629   -0.7234   -5.8151 H   0  0  0  0  0  0
   -2.4312   -2.0426   -4.5704 H   0  0  0  0  0  0
   -3.4804   -1.1209   -2.5405 H   0  0  0  0  0  0
    4.0423   -1.0857   -0.3835 H   0  0  0  0  0  0
    3.7955   -0.6157    1.2791 H   0  0  0  0  0  0
    3.5325   -3.0231    1.9194 H   0  0  0  0  0  0
    3.7426   -3.4945    0.2510 H   0  0  0  0  0  0
    6.0611   -2.5106    0.2615 H   0  0  0  0  0  0
    5.8495   -2.0398    1.9396 H   0  0  0  0  0  0
    7.0151   -4.0912    1.7411 H   0  0  0  0  0  0
    5.7698   -4.7902    0.9181 H   0  0  0  0  0  0
   -3.8183   -0.0060    4.8090 H   0  0  0  0  0  0
   -5.1575    1.1782    6.4836 H   0  0  0  0  0  0
   -5.2781    4.6495    3.9695 H   0  0  0  0  0  0
   -3.9385    3.4940    2.2814 H   0  0  0  0  0  0
    5.5722   -4.3497    2.4951 H   0  0  0  0  0  0
  1  2  1  0  0  0
  1  3  2  0  0  0
  1 24  1  0  0  0
  2  4  1  0  0  0
  2 31  1  0  0  0
  4  5  1  0  0  0
  4 12  1  0  0  0
  4 32  1  0  0  0
  5  6  2  0  0  0
  5  7  1  0  0  0
  7  8  1  0  0  0
  7 33  1  0  0  0
  8  9  1  0  0  0
  8 13  1  0  0  0
  8 34  1  0  0  0
  9 10  1  0  0  0
  9 11  2  0  0  0
 10 35  1  0  0  0
 10 36  1  0  0  0
 12 14  1  0  0  0
 12 37  1  0  0  0
 12 38  1  0  0  0
 13 20  1  0  0  0
 13 39  1  0  0  0
 13 40  1  0  0  0
 14 15  2  0  0  0
 14 19  1  0  0  0
 15 16  1  0  0  0
 15 41  1  0  0  0
 16 17  2  0  0  0
 16 42  1  0  0  0
 17 18  1  0  0  0
 17 43  1  0  0  0
 18 19  2  0  0  0
 18 44  1  0  0  0
 19 45  1  0  0  0
 20 21  1  0  0  0
 20 46  1  0  0  0
 20 47  1  0  0  0
 21 22  1  0  0  0
 21 48  1  0  0  0
 21 49  1  0  0  0
 22 23  1  0  0  0
 22 50  1  0  0  0
 22 51  1  0  0  0
 23 52  1  0  0  0
 23 53  1  0  0  0
 23 58  1  0  0  0
 24 25  2  0  0  0
 24 29  1  0  0  0
 25 26  1  0  0  0
 25 54  1  0  0  0
 26 27  2  0  0  0
 26 55  1  0  0  0
 27 28  1  0  0  0
 27 30  1  0  0  0
 28 29  2  0  0  0
 28 56  1  0  0  0
 29 57  1  0  0  0
M  CHG  1  23   1
M  END
> <chembl_id>
CHEMBL2382068

> <chembl_pref_name>
None

> <i_m_ct_stereo_status>
1

> <s_m_source_file>
sdf/inactives_sanitized.sdf

> <i_m_source_file_index>
404

> <i_lp_mmshare_version>
49012

> <i_f3d_flags>
0

> <s_epik_input>
W2NIXTFbY0hdYyhCcilbY0hdW2NIXWMxQyg9TylbTkhdW0NAQEhdKFtDSDJdYzJbY0hdW2NIXVtjSF1bY0hdW2NIXTIpQyg9TylbTkhdW0NASF0oQyg9TylbTkgyXSlbQ0gyXVtDSDJdW0NIMl1bQ0gyXVtOSDJd

> <s_epik_cmdline>
J2VwaWtfcHl0aG9uJywgJy1waHQnLCAnMC41JywgJy1waCcsICc3LjUnLCAnLW50JywgJy1tYScsICcyMDAnLCAnLWltYWUnLCAnPGluZmlsZS5tYWU+JywgJy1vbWFlJywgJzxvdXRmaWxlLm1hZT4n

> <r_lp_tautomer_probability>
1

> <r_epik_Ionization_Penalty>
  0.0014

> <r_epik_Ionization_Penalty_Charging>
  0.0014

> <r_epik_Ionization_Penalty_Neutral>
  0.0000

> <r_epik_State_Penalty>
 -0.0000

> <r_epik_Charging_Adjusted_Penalty>
0.00140340395202934

> <i_epik_Tot_Q>
1

> <i_epik_Tot_abs_Q>
1

> <s_lp_Force_Field>
OPLS3e

> <r_lp_Energy>
26.70023

> <b_lp_Chiralities_Consistent>
1

> <s_lp_Variant>
sdf/inactives_sanitized.sdf:404-1

$$$$
sdf/inactives_sanitized.sdf:405
                    3D
 Schrodinger Suite 2020-1.
 68 70  0  0  1  0            999 V2000
   -2.5296   -0.3506    2.5159 C   0  0  0  0  0  0
   -2.7809    0.5936    1.5870 N   0  0  0  0  0  0
   -1.8264   -1.3391    2.2917 O   0  0  0  0  0  0
   -2.2527    0.6280    0.2170 C   0  0  2  0  0  0
   -0.7173    0.7851    0.1928 C   0  0  0  0  0  0
   -0.1918    1.7324    0.7811 O   0  0  0  0  0  0
   -0.0371   -0.1407   -0.5030 N   0  0  0  0  0  0
    1.4224   -0.1984   -0.6082 C   0  0  2  0  0  0
    1.8151   -0.9297   -1.9090 C   0  0  0  0  0  0
    2.8172   -0.3998   -2.6163 N   0  0  0  0  0  0
    1.2420   -1.9670   -2.2417 O   0  0  0  0  0  0
   -2.9443    1.7556   -0.5894 C   0  0  0  0  0  0
    1.9938   -0.8865    0.6611 C   0  0  0  0  0  0
   -4.4477    1.6017   -0.7553 C   0  0  0  0  0  0
   -4.9654    0.7721   -1.7726 C   0  0  0  0  0  0
   -6.3341    0.5556   -1.8632 C   0  0  0  0  0  0
   -7.1961    1.1289   -0.9368 C   0  0  0  0  0  0
   -6.6974    1.9139    0.0952 C   0  0  0  0  0  0
   -5.3320    2.1437    0.2023 C   0  0  0  0  0  0
    3.5213   -0.7710    0.8149 C   0  0  0  0  0  0
    4.0233   -1.3685    2.1374 C   0  0  0  0  0  0
    5.5445   -1.2459    2.2996 C   0  0  0  0  0  0
    5.9902   -1.7902    3.5934 N   0  3  0  0  0  0
   -3.1800   -0.1535    3.8693 C   0  0  0  0  0  0
   -3.6932    1.0907    4.2648 C   0  0  0  0  0  0
   -4.2710    1.2501    5.5213 C   0  0  0  0  0  0
   -4.3534    0.1779    6.4186 C   0  0  0  0  0  0
   -3.8424   -1.0630    6.0183 C   0  0  0  0  0  0
   -3.2623   -1.2276    4.7637 C   0  0  0  0  0  0
   -4.9663    0.3545    7.7715 C   0  0  0  0  0  0
   -5.6824   -0.6888    8.3775 C   0  0  0  0  0  0
   -6.2505   -0.5266    9.6384 C   0  0  0  0  0  0
   -6.1067    0.6841   10.3087 C   0  0  0  0  0  0
   -5.4006    1.7323    9.7270 C   0  0  0  0  0  0
   -4.8349    1.5667    8.4655 C   0  0  0  0  0  0
   -3.3776    1.3678    1.8369 H   0  0  0  0  0  0
   -2.5157   -0.3208   -0.2571 H   0  0  0  0  0  0
   -0.5398   -0.8807   -0.9721 H   0  0  0  0  0  0
    1.7966    0.8273   -0.6566 H   0  0  0  0  0  0
    3.2684    0.4493   -2.3090 H   0  0  0  0  0  0
    3.1215   -0.8429   -3.4711 H   0  0  0  0  0  0
   -2.7523    2.7240   -0.1226 H   0  0  0  0  0  0
   -2.5075    1.8180   -1.5882 H   0  0  0  0  0  0
    1.5397   -0.4410    1.5482 H   0  0  0  0  0  0
    1.7023   -1.9386    0.6837 H   0  0  0  0  0  0
   -4.3005    0.3062   -2.4851 H   0  0  0  0  0  0
   -6.7292   -0.0680   -2.6517 H   0  0  0  0  0  0
   -8.2592    0.9526   -1.0120 H   0  0  0  0  0  0
   -7.3733    2.3404    0.8217 H   0  0  0  0  0  0
   -4.9513    2.7395    1.0189 H   0  0  0  0  0  0
    4.0156   -1.2740   -0.0169 H   0  0  0  0  0  0
    3.8113    0.2788    0.7569 H   0  0  0  0  0  0
    3.5260   -0.8699    2.9707 H   0  0  0  0  0  0
    3.7329   -2.4187    2.1920 H   0  0  0  0  0  0
    6.0561   -1.7793    1.4976 H   0  0  0  0  0  0
    5.8484   -0.2003    2.2378 H   0  0  0  0  0  0
    6.9927   -1.6951    3.6729 H   0  0  0  0  0  0
    5.7403   -2.7669    3.6552 H   0  0  0  0  0  0
   -3.6473    1.9507    3.6124 H   0  0  0  0  0  0
   -4.6623    2.2205    5.7891 H   0  0  0  0  0  0
   -3.8774   -1.9120    6.6850 H   0  0  0  0  0  0
   -2.8757   -2.2016    4.4983 H   0  0  0  0  0  0
   -5.8134   -1.6335    7.8702 H   0  0  0  0  0  0
   -6.8015   -1.3365   10.0936 H   0  0  0  0  0  0
   -6.5458    0.8108   11.2874 H   0  0  0  0  0  0
   -5.2896    2.6694   10.2528 H   0  0  0  0  0  0
   -4.2808    2.3888    8.0368 H   0  0  0  0  0  0
    5.5452   -1.2819    4.3444 H   0  0  0  0  0  0
  1  2  1  0  0  0
  1  3  2  0  0  0
  1 24  1  0  0  0
  2  4  1  0  0  0
  2 36  1  0  0  0
  4  5  1  0  0  0
  4 12  1  0  0  0
  4 37  1  0  0  0
  5  6  2  0  0  0
  5  7  1  0  0  0
  7  8  1  0  0  0
  7 38  1  0  0  0
  8  9  1  0  0  0
  8 13  1  0  0  0
  8 39  1  0  0  0
  9 10  1  0  0  0
  9 11  2  0  0  0
 10 40  1  0  0  0
 10 41  1  0  0  0
 12 14  1  0  0  0
 12 42  1  0  0  0
 12 43  1  0  0  0
 13 20  1  0  0  0
 13 44  1  0  0  0
 13 45  1  0  0  0
 14 15  2  0  0  0
 14 19  1  0  0  0
 15 16  1  0  0  0
 15 46  1  0  0  0
 16 17  2  0  0  0
 16 47  1  0  0  0
 17 18  1  0  0  0
 17 48  1  0  0  0
 18 19  2  0  0  0
 18 49  1  0  0  0
 19 50  1  0  0  0
 20 21  1  0  0  0
 20 51  1  0  0  0
 20 52  1  0  0  0
 21 22  1  0  0  0
 21 53  1  0  0  0
 21 54  1  0  0  0
 22 23  1  0  0  0
 22 55  1  0  0  0
 22 56  1  0  0  0
 23 57  1  0  0  0
 23 58  1  0  0  0
 23 68  1  0  0  0
 24 25  2  0  0  0
 24 29  1  0  0  0
 25 26  1  0  0  0
 25 59  1  0  0  0
 26 27  2  0  0  0
 26 60  1  0  0  0
 27 28  1  0  0  0
 27 30  1  0  0  0
 28 29  2  0  0  0
 28 61  1  0  0  0
 29 62  1  0  0  0
 30 31  2  0  0  0
 30 35  1  0  0  0
 31 32  1  0  0  0
 31 63  1  0  0  0
 32 33  2  0  0  0
 32 64  1  0  0  0
 33 34  1  0  0  0
 33 65  1  0  0  0
 34 35  2  0  0  0
 34 66  1  0  0  0
 35 67  1  0  0  0
M  CHG  1  23   1
M  END
> <chembl_id>
CHEMBL2382065

> <chembl_pref_name>
None

> <i_m_ct_stereo_status>
1

> <s_m_source_file>
sdf/inactives_sanitized.sdf

> <i_m_source_file_index>
405

> <i_lp_mmshare_version>
49012

> <i_f3d_flags>
0

> <s_epik_input>
W2NIXTFbY0hdW2NIXVtjSF1bY0hdYzEtYyhbY0hdW2NIXTIpW2NIXVtjSF1jMkMoPU8pW05IXVtDQEBIXShbQ0gyXWMzW2NIXVtjSF1bY0hdW2NIXVtjSF0zKUMoPU8pW05IXVtDQEhdKEMoPU8pW05IMl0pW0NIMl1bQ0gyXVtDSDJdW0NIMl1bTkgyXQ==

> <s_epik_cmdline>
J2VwaWtfcHl0aG9uJywgJy1waHQnLCAnMC41JywgJy1waCcsICc3LjUnLCAnLW50JywgJy1tYScsICcyMDAnLCAnLWltYWUnLCAnPGluZmlsZS5tYWU+JywgJy1vbWFlJywgJzxvdXRmaWxlLm1hZT4n

> <r_lp_tautomer_probability>
1

> <r_epik_Ionization_Penalty>
  0.0014

> <r_epik_Ionization_Penalty_Charging>
  0.0014

> <r_epik_Ionization_Penalty_Neutral>
  0.0000

> <r_epik_State_Penalty>
 -0.0000

> <r_epik_Charging_Adjusted_Penalty>
0.00140340395202934

> <i_epik_Tot_Q>
1

> <i_epik_Tot_abs_Q>
1

> <s_lp_Force_Field>
OPLS3e

> <r_lp_Energy>
38.354797

> <b_lp_Chiralities_Consistent>
1

> <s_lp_Variant>
sdf/inactives_sanitized.sdf:405-1

$$$$
sdf/inactives_sanitized.sdf:406
                    3D
 Schrodinger Suite 2020-1.
 57 58  0  0  1  0            999 V2000
   -3.8355    1.6863    1.4937 C   0  0  0  0  0  0
   -2.9767    1.8066    0.4604 N   0  0  0  0  0  0
   -4.1899    0.5938    1.9432 O   0  0  0  0  0  0
   -2.3404    0.7026   -0.2662 C   0  0  2  0  0  0
   -0.8357    0.9913   -0.4136 C   0  0  0  0  0  0
   -0.4631    2.0108   -0.9984 O   0  0  0  0  0  0
   -0.0011    0.0689    0.0967 N   0  0  0  0  0  0
    1.4619    0.1261    0.0159 C   0  0  2  0  0  0
    1.9500   -0.2235   -1.4092 C   0  0  0  0  0  0
    2.8787    0.5771   -1.9393 N   0  0  0  0  0  0
    1.5113   -1.2146   -1.9922 O   0  0  0  0  0  0
   -3.0202    0.4888   -1.6439 C   0  0  0  0  0  0
    2.0434   -0.8328    1.0862 C   0  0  0  0  0  0
   -4.4930    0.1147   -1.5902 C   0  0  0  0  0  0
   -4.8767   -1.2124   -1.3035 C   0  0  0  0  0  0
   -6.2202   -1.5294   -1.1512 C   0  0  0  0  0  0
   -7.1892   -0.5390   -1.2537 C   0  0  0  0  0  0
   -6.8238    0.7789   -1.4978 C   0  0  0  0  0  0
   -5.4860    1.1162   -1.6536 C   0  0  0  0  0  0
    3.5567   -0.6721    1.3280 C   0  0  0  0  0  0
    4.0739   -1.5820    2.4521 C   0  0  0  0  0  0
    5.5834   -1.4282    2.6867 C   0  0  0  0  0  0
    6.0503   -2.3060    3.7738 N   0  3  0  0  0  0
   -4.3666    2.9739    2.0903 C   0  0  0  0  0  0
   -5.2845    2.9380    3.1528 C   0  0  0  0  0  0
   -5.7567    4.1386    3.6867 C   0  0  0  0  0  0
   -5.3114    5.3498    3.1574 C   0  0  0  0  0  0
   -4.4011    5.3176    2.1018 C   0  0  0  0  0  0
   -3.9310    4.1605    1.5706 N   0  0  0  0  0  0
   -2.7255    2.7329    0.1461 H   0  0  0  0  0  0
   -2.4598   -0.2212    0.3050 H   0  0  0  0  0  0
   -0.3869   -0.7469    0.5495 H   0  0  0  0  0  0
    1.7635    1.1459    0.2676 H   0  0  0  0  0  0
    3.2140    1.3810   -1.4290 H   0  0  0  0  0  0
    3.2371    0.3907   -2.8645 H   0  0  0  0  0  0
   -2.9229    1.3862   -2.2582 H   0  0  0  0  0  0
   -2.5000   -0.3010   -2.1891 H   0  0  0  0  0  0
    1.5351   -0.6554    2.0359 H   0  0  0  0  0  0
    1.8238   -1.8703    0.8254 H   0  0  0  0  0  0
   -4.1280   -1.9839   -1.1993 H   0  0  0  0  0  0
   -6.5118   -2.5481   -0.9419 H   0  0  0  0  0  0
   -8.2316   -0.7929   -1.1292 H   0  0  0  0  0  0
   -7.5819    1.5458   -1.5568 H   0  0  0  0  0  0
   -5.2089    2.1472   -1.8195 H   0  0  0  0  0  0
    4.1025   -0.8922    0.4099 H   0  0  0  0  0  0
    3.7748    0.3681    1.5729 H   0  0  0  0  0  0
    3.5371   -1.3565    3.3748 H   0  0  0  0  0  0
    3.8448   -2.6208    2.2102 H   0  0  0  0  0  0
    6.1355   -1.6721    1.7783 H   0  0  0  0  0  0
    5.8238   -0.3957    2.9431 H   0  0  0  0  0  0
    7.0435   -2.1785    3.9075 H   0  0  0  0  0  0
    5.8660   -3.2700    3.5340 H   0  0  0  0  0  0
   -5.6330    2.0016    3.5651 H   0  0  0  0  0  0
   -6.4623    4.1292    4.5044 H   0  0  0  0  0  0
   -5.6640    6.2897    3.5560 H   0  0  0  0  0  0
   -4.0329    6.2335    1.6636 H   0  0  0  0  0  0
    5.5652   -2.0747    4.6293 H   0  0  0  0  0  0
  1  2  1  0  0  0
  1  3  2  0  0  0
  1 24  1  0  0  0
  2  4  1  0  0  0
  2 30  1  0  0  0
  4  5  1  0  0  0
  4 12  1  0  0  0
  4 31  1  0  0  0
  5  6  2  0  0  0
  5  7  1  0  0  0
  7  8  1  0  0  0
  7 32  1  0  0  0
  8  9  1  0  0  0
  8 13  1  0  0  0
  8 33  1  0  0  0
  9 10  1  0  0  0
  9 11  2  0  0  0
 10 34  1  0  0  0
 10 35  1  0  0  0
 12 14  1  0  0  0
 12 36  1  0  0  0
 12 37  1  0  0  0
 13 20  1  0  0  0
 13 38  1  0  0  0
 13 39  1  0  0  0
 14 15  2  0  0  0
 14 19  1  0  0  0
 15 16  1  0  0  0
 15 40  1  0  0  0
 16 17  2  0  0  0
 16 41  1  0  0  0
 17 18  1  0  0  0
 17 42  1  0  0  0
 18 19  2  0  0  0
 18 43  1  0  0  0
 19 44  1  0  0  0
 20 21  1  0  0  0
 20 45  1  0  0  0
 20 46  1  0  0  0
 21 22  1  0  0  0
 21 47  1  0  0  0
 21 48  1  0  0  0
 22 23  1  0  0  0
 22 49  1  0  0  0
 22 50  1  0  0  0
 23 51  1  0  0  0
 23 52  1  0  0  0
 23 57  1  0  0  0
 24 25  2  0  0  0
 24 29  1  0  0  0
 25 26  1  0  0  0
 25 53  1  0  0  0
 26 27  2  0  0  0
 26 54  1  0  0  0
 27 28  1  0  0  0
 27 55  1  0  0  0
 28 29  2  0  0  0
 28 56  1  0  0  0
M  CHG  1  23   1
M  END
> <chembl_id>
CHEMBL2382073

> <chembl_pref_name>
None

> <i_m_ct_stereo_status>
1

> <s_m_source_file>
sdf/inactives_sanitized.sdf

> <i_m_source_file_index>
406

> <i_lp_mmshare_version>
49012

> <i_f3d_flags>
0

> <s_epik_input>
bjFbY0hdW2NIXVtjSF1bY0hdYzFDKD1PKVtOSF1bQ0BASF0oW0NIMl1jMltjSF1bY0hdW2NIXVtjSF1bY0hdMilDKD1PKVtOSF1bQ0BIXShDKD1PKVtOSDJdKVtDSDJdW0NIMl1bQ0gyXVtDSDJdW05IMl0=

> <s_epik_cmdline>
J2VwaWtfcHl0aG9uJywgJy1waHQnLCAnMC41JywgJy1waCcsICc3LjUnLCAnLW50JywgJy1tYScsICcyMDAnLCAnLWltYWUnLCAnPGluZmlsZS5tYWU+JywgJy1vbWFlJywgJzxvdXRmaWxlLm1hZT4n

> <r_lp_tautomer_probability>
1

> <r_epik_Ionization_Penalty>
  0.0015

> <r_epik_Ionization_Penalty_Charging>
  0.0014

> <r_epik_Ionization_Penalty_Neutral>
  0.0001

> <r_epik_State_Penalty>
 -0.0000

> <r_epik_Charging_Adjusted_Penalty>
0.00140340395202934

> <i_epik_Tot_Q>
1

> <i_epik_Tot_abs_Q>
1

> <s_lp_Force_Field>
OPLS3e

> <r_lp_Energy>
29.919527

> <b_lp_Chiralities_Consistent>
1

> <s_lp_Variant>
sdf/inactives_sanitized.sdf:406-1

$$$$
sdf/inactives_sanitized.sdf:407
                    3D
 Schrodinger Suite 2020-1.
 61 65  0  0  1  0            999 V2000
   -2.5452   -3.6957    4.0471 C   0  0  0  0  0  0
   -2.0315   -3.1179    2.7179 C   0  0  2  0  0  0
   -0.4955   -2.8921    2.7328 C   0  0  0  0  0  0
   -0.0136   -2.2859    1.3969 C   0  0  0  0  0  0
   -0.7222   -0.9272    1.1527 C   0  0  2  0  0  0
   -2.2281   -1.2598    0.9858 C   0  0  0  0  0  0
   -2.7836   -1.8213    2.3119 C   0  0  0  0  0  0
   -0.1384   -0.1026   -0.0480 C   0  0  2  0  0  0
    1.3274   -0.0146   -0.0176 N   0  0  0  0  0  0
    2.1840   -0.6959   -0.8030 C   0  0  0  0  0  0
    1.8177   -1.4861   -1.6753 O   0  0  0  0  0  0
    3.6525   -0.4140   -0.5826 C   0  0  0  0  0  0
    4.1335    0.0524    0.6519 C   0  0  0  0  0  0
    5.4921    0.3019    0.8373 C   0  0  0  0  0  0
    6.3917    0.0895   -0.2047 C   0  0  0  0  0  0
    5.9379   -0.3775   -1.4438 C   0  0  0  0  0  0
    4.5692   -0.6300   -1.6224 C   0  0  0  0  0  0
    6.8583   -0.5898   -2.4963 N   0  0  0  0  0  0
    8.1987   -0.9005   -2.4314 C   0  0  0  0  0  0
    8.7153   -1.0165   -3.6281 N   0  0  0  0  0  0
    7.6615   -0.7692   -4.5012 N   0  0  0  0  0  0
    6.5062   -0.5050   -3.7897 N   0  0  0  0  0  0
   -0.7078    1.3404   -0.1850 C   0  0  0  0  0  0
   -1.3033    1.8222    0.7816 O   0  0  0  0  0  0
   -0.4845    2.0485   -1.3284 N   0  0  0  0  0  0
    0.1016    1.4590   -2.5459 C   0  0  0  0  0  0
   -0.3759    2.3695   -3.6763 C   0  0  0  0  0  0
   -0.6386    3.7113   -3.0076 C   0  0  1  0  0  0
   -1.6919    4.4691   -3.5824 O   0  0  0  0  0  0
   -2.9165    4.0470   -3.0079 C   0  0  0  0  0  0
   -2.5713    3.5837   -1.6028 C   0  0  0  0  0  0
   -3.3689    3.3667   -0.6928 O   0  0  0  0  0  0
   -1.0502    3.3957   -1.5716 C   0  0  1  0  0  0
   -2.3791   -3.0034    4.8733 H   0  0  0  0  0  0
   -2.0410   -4.6313    4.2912 H   0  0  0  0  0  0
   -3.6143   -3.9049    3.9984 H   0  0  0  0  0  0
   -2.2269   -3.8462    1.9283 H   0  0  0  0  0  0
   -0.2287   -2.2290    3.5577 H   0  0  0  0  0  0
    0.0217   -3.8290    2.9436 H   0  0  0  0  0  0
    1.0652   -2.1478    1.4604 H   0  0  0  0  0  0
   -0.1477   -2.9605    0.5495 H   0  0  0  0  0  0
   -0.5739   -0.3166    2.0469 H   0  0  0  0  0  0
   -2.7899   -0.3611    0.7325 H   0  0  0  0  0  0
   -2.3963   -1.9266    0.1383 H   0  0  0  0  0  0
   -2.6874   -1.0740    3.1017 H   0  0  0  0  0  0
   -3.8542   -2.0150    2.2335 H   0  0  0  0  0  0
   -0.4520   -0.6492   -0.9381 H   0  0  0  0  0  0
    1.7029    0.6281    0.6642 H   0  0  0  0  0  0
    3.4639    0.2210    1.4834 H   0  0  0  0  0  0
    5.8488    0.6615    1.7913 H   0  0  0  0  0  0
    7.4389    0.2969   -0.0393 H   0  0  0  0  0  0
    4.2164   -0.9947   -2.5776 H   0  0  0  0  0  0
    8.7020   -1.0274   -1.4844 H   0  0  0  0  0  0
    1.1898    1.5239   -2.5097 H   0  0  0  0  0  0
   -0.2488    0.4494   -2.7624 H   0  0  0  0  0  0
    0.3755    2.4324   -4.4641 H   0  0  0  0  0  0
   -1.2885    1.9796   -4.1294 H   0  0  0  0  0  0
    0.2702    4.3150   -3.0347 H   0  0  0  0  0  0
   -3.6418    4.8606   -2.9999 H   0  0  0  0  0  0
   -3.3327    3.2168   -3.5792 H   0  0  0  0  0  0
   -0.6168    4.1198   -0.8808 H   0  0  0  0  0  0
  1  2  1  0  0  0
  1 34  1  0  0  0
  1 35  1  0  0  0
  1 36  1  0  0  0
  2  3  1  0  0  0
  2  7  1  0  0  0
  2 37  1  0  0  0
  3  4  1  0  0  0
  3 38  1  0  0  0
  3 39  1  0  0  0
  4  5  1  0  0  0
  4 40  1  0  0  0
  4 41  1  0  0  0
  5  6  1  0  0  0
  5  8  1  0  0  0
  5 42  1  0  0  0
  6  7  1  0  0  0
  6 43  1  0  0  0
  6 44  1  0  0  0
  7 45  1  0  0  0
  7 46  1  0  0  0
  8  9  1  0  0  0
  8 23  1  0  0  0
  8 47  1  0  0  0
  9 10  1  0  0  0
  9 48  1  0  0  0
 10 11  2  0  0  0
 10 12  1  0  0  0
 12 13  2  0  0  0
 12 17  1  0  0  0
 13 14  1  0  0  0
 13 49  1  0  0  0
 14 15  2  0  0  0
 14 50  1  0  0  0
 15 16  1  0  0  0
 15 51  1  0  0  0
 16 17  2  0  0  0
 16 18  1  0  0  0
 17 52  1  0  0  0
 18 19  1  0  0  0
 18 22  1  0  0  0
 19 20  2  0  0  0
 19 53  1  0  0  0
 20 21  1  0  0  0
 21 22  2  0  0  0
 23 24  2  0  0  0
 23 25  1  0  0  0
 25 26  1  0  0  0
 25 33  1  0  0  0
 26 27  1  0  0  0
 26 54  1  0  0  0
 26 55  1  0  0  0
 27 28  1  0  0  0
 27 56  1  0  0  0
 27 57  1  0  0  0
 28 29  1  0  0  0
 28 33  1  0  0  0
 28 58  1  0  0  0
 29 30  1  0  0  0
 30 31  1  0  0  0
 30 59  1  0  0  0
 30 60  1  0  0  0
 31 32  2  0  0  0
 31 33  1  0  0  0
 33 61  1  0  0  0
M  END
> <chembl_id>
CHEMBL3648406

> <chembl_pref_name>
None

> <i_m_ct_stereo_status>
1

> <s_m_source_file>
sdf/inactives_sanitized.sdf

> <i_m_source_file_index>
407

> <i_lp_mmshare_version>
49012

> <i_f3d_flags>
0

> <s_epik_input>
TzFbQ0gyXUMoPU8pW0NASF0oW0NASF0xMilOKFtDSDJdW0NIMl0yKUMoPU8pW0NASF0oW0NAQEhdKFtDSDJdW0NIMl0zKVtDSDJdW0NIMl1bQ0BIXTNbQ0gzXSlbTkhdQyg9TyljNFtjSF1bY0hdW2NIXWMoW2NIXTQpLW41W2NIXW5ubjU=

> <s_epik_cmdline>
J2VwaWtfcHl0aG9uJywgJy1waHQnLCAnMC41JywgJy1waCcsICc3LjUnLCAnLW50JywgJy1tYScsICcyMDAnLCAnLWltYWUnLCAnPGluZmlsZS5tYWU+JywgJy1vbWFlJywgJzxvdXRmaWxlLm1hZT4n

> <r_lp_tautomer_probability>
1

> <r_epik_Ionization_Penalty>
  0.0000

> <r_epik_Ionization_Penalty_Charging>
  0.0000

> <r_epik_Ionization_Penalty_Neutral>
  0.0000

> <r_epik_State_Penalty>
 -0.0000

> <r_epik_Charging_Adjusted_Penalty>
0

> <i_epik_Tot_Q>
0

> <i_epik_Tot_abs_Q>
0

> <s_lp_Force_Field>
OPLS3e

> <r_lp_Energy>
36.266098

> <b_lp_Chiralities_Consistent>
1

> <s_lp_Variant>
sdf/inactives_sanitized.sdf:407-1

$$$$
sdf/inactives_sanitized.sdf:408
                    3D
 Schrodinger Suite 2020-1.
 57 58  0  0  1  0            999 V2000
   -6.3973    0.4588   -3.3912 C   0  0  0  0  0  0
   -5.3694    1.3023   -3.8083 C   0  0  0  0  0  0
   -4.0920    0.7856   -4.0093 C   0  0  0  0  0  0
   -3.8482   -0.5723   -3.7894 C   0  0  0  0  0  0
   -4.8826   -1.4139   -3.3729 C   0  0  0  0  0  0
   -6.1601   -0.8970   -3.1734 C   0  0  0  0  0  0
   -2.4513   -1.1401   -4.0069 C   0  0  0  0  0  0
   -1.8176   -1.4563   -2.7670 O   0  0  0  0  0  0
   -1.2656   -0.5007   -1.9845 C   0  0  0  0  0  0
   -0.7864   -1.0929   -0.8214 N   0  0  0  0  0  0
   -1.2028    0.6969   -2.2748 O   0  0  0  0  0  0
   -0.1355   -0.2890    0.2242 C   0  0  2  0  0  0
    1.3735   -0.0832   -0.0405 C   0  0  0  0  0  0
    2.0656   -1.0288   -0.4218 O   0  0  0  0  0  0
    1.8473    1.1452    0.2251 N   0  0  0  0  0  0
    3.2547    1.5467    0.1564 C   0  0  2  0  0  0
    3.6478    2.2708    1.4622 C   0  0  0  0  0  0
    4.8935    2.0738    1.9032 N   0  0  0  0  0  0
    2.8511    3.0125    2.0381 O   0  0  0  0  0  0
   -0.4359   -0.9226    1.6079 C   0  0  0  0  0  0
    3.4782    2.4612   -1.0745 C   0  0  0  0  0  0
    0.1128   -0.1688    2.8118 C   0  0  0  0  0  0
    1.3796   -0.4942    3.3440 C   0  0  0  0  0  0
    1.9254    0.2767    4.3619 C   0  0  0  0  0  0
    1.2408    1.3850    4.8440 C   0  0  0  0  0  0
    0.0092    1.7380    4.3069 C   0  0  0  0  0  0
   -0.5535    0.9801    3.2883 C   0  0  0  0  0  0
    3.2634    1.7628   -2.4276 C   0  0  0  0  0  0
    3.6048    2.8163   -3.8612 S   0  0  0  0  0  0
    3.2654    1.6308   -5.1879 C   0  0  0  0  0  0
   -7.3881    0.8599   -3.2352 H   0  0  0  0  0  0
   -5.5623    2.3519   -3.9745 H   0  0  0  0  0  0
   -3.2940    1.4403   -4.3292 H   0  0  0  0  0  0
   -4.6970   -2.4646   -3.2025 H   0  0  0  0  0  0
   -6.9630   -1.5435   -2.8510 H   0  0  0  0  0  0
   -2.5372   -2.0522   -4.5982 H   0  0  0  0  0  0
   -1.8423   -0.4518   -4.5961 H   0  0  0  0  0  0
   -0.8494   -2.0935   -0.7042 H   0  0  0  0  0  0
   -0.6095    0.6962    0.2676 H   0  0  0  0  0  0
    1.2101    1.8572    0.5525 H   0  0  0  0  0  0
    3.8960    0.6671    0.0614 H   0  0  0  0  0  0
    5.5245    1.4675    1.4000 H   0  0  0  0  0  0
    5.2089    2.5314    2.7460 H   0  0  0  0  0  0
   -1.5164   -1.0073    1.7367 H   0  0  0  0  0  0
   -0.0605   -1.9472    1.6409 H   0  0  0  0  0  0
    2.8289    3.3370   -1.0143 H   0  0  0  0  0  0
    4.4935    2.8616   -1.0551 H   0  0  0  0  0  0
    1.9323   -1.3374    2.9558 H   0  0  0  0  0  0
    2.8917    0.0212    4.7712 H   0  0  0  0  0  0
    1.6750    1.9837    5.6310 H   0  0  0  0  0  0
   -0.5075    2.6121    4.6750 H   0  0  0  0  0  0
   -1.4994    1.2765    2.8589 H   0  0  0  0  0  0
    3.9027    0.8817   -2.4908 H   0  0  0  0  0  0
    2.2349    1.4104   -2.5102 H   0  0  0  0  0  0
    3.4063    2.1035   -6.1598 H   0  0  0  0  0  0
    2.2389    1.2697   -5.1234 H   0  0  0  0  0  0
    3.9403    0.7775   -5.1172 H   0  0  0  0  0  0
  1  2  2  0  0  0
  1  6  1  0  0  0
  1 31  1  0  0  0
  2  3  1  0  0  0
  2 32  1  0  0  0
  3  4  2  0  0  0
  3 33  1  0  0  0
  4  5  1  0  0  0
  4  7  1  0  0  0
  5  6  2  0  0  0
  5 34  1  0  0  0
  6 35  1  0  0  0
  7  8  1  0  0  0
  7 36  1  0  0  0
  7 37  1  0  0  0
  8  9  1  0  0  0
  9 10  1  0  0  0
  9 11  2  0  0  0
 10 12  1  0  0  0
 10 38  1  0  0  0
 12 13  1  0  0  0
 12 20  1  0  0  0
 12 39  1  0  0  0
 13 14  2  0  0  0
 13 15  1  0  0  0
 15 16  1  0  0  0
 15 40  1  0  0  0
 16 17  1  0  0  0
 16 21  1  0  0  0
 16 41  1  0  0  0
 17 18  1  0  0  0
 17 19  2  0  0  0
 18 42  1  0  0  0
 18 43  1  0  0  0
 20 22  1  0  0  0
 20 44  1  0  0  0
 20 45  1  0  0  0
 21 28  1  0  0  0
 21 46  1  0  0  0
 21 47  1  0  0  0
 22 23  2  0  0  0
 22 27  1  0  0  0
 23 24  1  0  0  0
 23 48  1  0  0  0
 24 25  2  0  0  0
 24 49  1  0  0  0
 25 26  1  0  0  0
 25 50  1  0  0  0
 26 27  2  0  0  0
 26 51  1  0  0  0
 27 52  1  0  0  0
 28 29  1  0  0  0
 28 53  1  0  0  0
 28 54  1  0  0  0
 29 30  1  0  0  0
 30 55  1  0  0  0
 30 56  1  0  0  0
 30 57  1  0  0  0
M  END
> <chembl_id>
CHEMBL2381996

> <chembl_pref_name>
None

> <i_m_ct_stereo_status>
1

> <s_m_source_file>
sdf/inactives_sanitized.sdf

> <i_m_source_file_index>
408

> <i_lp_mmshare_version>
49012

> <i_f3d_flags>
0

> <s_epik_input>
W2NIXTFbY0hdW2NIXVtjSF1bY0hdYzFbQ0gyXU9DKD1PKVtOSF1bQ0BIXShDKD1PKVtOSF1bQ0BIXShDKD1PKVtOSDJdKVtDSDJdW0NIMl1TW0NIM10pW0NIMl1jMltjSF1bY0hdW2NIXVtjSF1bY0hdMg==

> <s_epik_cmdline>
J2VwaWtfcHl0aG9uJywgJy1waHQnLCAnMC41JywgJy1waCcsICc3LjUnLCAnLW50JywgJy1tYScsICcyMDAnLCAnLWltYWUnLCAnPGluZmlsZS5tYWU+JywgJy1vbWFlJywgJzxvdXRmaWxlLm1hZT4n

> <r_lp_tautomer_probability>
1

> <r_epik_Ionization_Penalty>
  0.0000

> <r_epik_Ionization_Penalty_Charging>
  0.0000

> <r_epik_Ionization_Penalty_Neutral>
  0.0000

> <r_epik_State_Penalty>
 -0.0000

> <r_epik_Charging_Adjusted_Penalty>
0

> <i_epik_Tot_Q>
0

> <i_epik_Tot_abs_Q>
0

> <s_epik_Chemistry_Notes>
This compound has an ester and may undergo hydrolysis at high or low pH.

> <s_lp_Force_Field>
OPLS3e

> <r_lp_Energy>
23.472359

> <b_lp_Chiralities_Consistent>
1

> <s_lp_Variant>
sdf/inactives_sanitized.sdf:408-1

$$$$
sdf/inactives_sanitized.sdf:409
                    3D
 Schrodinger Suite 2020-1.
 75 77  0  0  1  0            999 V2000
   -3.3431   -3.8607   -7.0386 C   0  0  0  0  0  0
   -3.0480   -2.6130   -7.5829 C   0  0  0  0  0  0
   -2.6302   -1.5785   -6.7496 C   0  0  0  0  0  0
   -2.5042   -1.7911   -5.3743 C   0  0  0  0  0  0
   -2.8089   -3.0476   -4.8348 C   0  0  0  0  0  0
   -3.2260   -4.0822   -5.6683 C   0  0  0  0  0  0
   -2.0556   -0.6258   -4.4979 C   0  0  0  0  0  0
   -1.5117   -1.0678   -3.2565 O   0  0  0  0  0  0
   -1.0614   -0.1807   -2.3479 C   0  0  0  0  0  0
   -0.5960   -0.8733   -1.2355 N   0  0  0  0  0  0
   -1.0654    1.0442   -2.4980 O   0  0  0  0  0  0
   -0.0346   -0.1617   -0.0763 C   0  0  2  0  0  0
    1.4717    0.1510   -0.2598 C   0  0  0  0  0  0
    2.2149   -0.6623   -0.8123 O   0  0  0  0  0  0
    1.8860    1.3117    0.2740 N   0  0  0  0  0  0
    3.2735    1.7654    0.3537 C   0  0  2  0  0  0
    3.4533    2.5705    1.6591 C   0  0  0  0  0  0
    4.5311    2.2893    2.3964 N   0  0  0  0  0  0
    2.6445    3.4446    1.9720 O   0  0  0  0  0  0
   -0.3170   -0.9498    1.2360 C   0  0  0  0  0  0
    3.6052    2.5891   -0.9172 C   0  0  0  0  0  0
    0.1535   -0.2272    2.5011 C   0  0  0  0  0  0
    1.0821   -0.8373    3.3454 C   0  0  0  0  0  0
    1.5840   -0.1469    4.4450 C   0  0  0  0  0  0
    1.1665    1.1615    4.7228 C   0  0  0  0  0  0
    0.2049    1.7482    3.8898 C   0  0  0  0  0  0
   -0.3026    1.0604    2.7923 C   0  0  0  0  0  0
    5.0960    2.9402   -1.0773 C   0  0  0  0  0  0
    5.3802    3.6998   -2.3813 C   0  0  0  0  0  0
    6.8641    4.0544   -2.5488 C   0  0  0  0  0  0
    7.1004    4.7825   -3.8072 N   0  3  0  0  0  0
    1.7441    1.9206    5.8721 C   0  0  0  0  0  0
    1.9669    3.3030    5.7816 C   0  0  0  0  0  0
    2.5155    4.0145    6.8476 C   0  0  0  0  0  0
    2.8507    3.3545    8.0273 C   0  0  0  0  0  0
    2.6347    1.9803    8.1441 C   0  0  0  0  0  0
    2.0899    1.2730    7.0683 C   0  0  0  0  0  0
    3.0100    1.2540    9.4229 C   0  0  0  0  0  0
   -3.6668   -4.6634   -7.6849 H   0  0  0  0  0  0
   -3.1436   -2.4483   -8.6461 H   0  0  0  0  0  0
   -2.4045   -0.6115   -7.1756 H   0  0  0  0  0  0
   -2.7280   -3.2302   -3.7732 H   0  0  0  0  0  0
   -3.4592   -5.0521   -5.2541 H   0  0  0  0  0  0
   -1.2985   -0.0498   -5.0334 H   0  0  0  0  0  0
   -2.9098    0.0298   -4.3205 H   0  0  0  0  0  0
   -0.6022   -1.8827   -1.2347 H   0  0  0  0  0  0
   -0.5709    0.7843    0.0355 H   0  0  0  0  0  0
    1.2105    1.9115    0.7260 H   0  0  0  0  0  0
    3.9230    0.8872    0.3885 H   0  0  0  0  0  0
    5.1744    1.5665    2.1089 H   0  0  0  0  0  0
    4.7001    2.7918    3.2558 H   0  0  0  0  0  0
   -1.3864   -1.1399    1.3413 H   0  0  0  0  0  0
    0.1449   -1.9378    1.1782 H   0  0  0  0  0  0
    3.3001    2.0221   -1.7989 H   0  0  0  0  0  0
    3.0107    3.5046   -0.9377 H   0  0  0  0  0  0
    1.4441   -1.8330    3.1347 H   0  0  0  0  0  0
    2.3262   -0.6293    5.0638 H   0  0  0  0  0  0
   -0.1522    2.7490    4.0838 H   0  0  0  0  0  0
   -1.0315    1.5428    2.1581 H   0  0  0  0  0  0
    5.4258    3.5443   -0.2315 H   0  0  0  0  0  0
    5.6879    2.0245   -1.0512 H   0  0  0  0  0  0
    5.0516    3.0962   -3.2287 H   0  0  0  0  0  0
    4.7812    4.6115   -2.4044 H   0  0  0  0  0  0
    7.2032    4.6724   -1.7166 H   0  0  0  0  0  0
    7.4726    3.1493   -2.5481 H   0  0  0  0  0  0
    8.0831    5.0009   -3.8933 H   0  0  0  0  0  0
    6.5658    5.6396   -3.8079 H   0  0  0  0  0  0
    1.7282    3.8366    4.8732 H   0  0  0  0  0  0
    2.6840    5.0775    6.7570 H   0  0  0  0  0  0
    3.2768    3.9128    8.8483 H   0  0  0  0  0  0
    1.9252    0.2103    7.1723 H   0  0  0  0  0  0
    3.3585    0.2433    9.2061 H   0  0  0  0  0  0
    2.1519    1.1892   10.0922 H   0  0  0  0  0  0
    3.8253    1.7618    9.9399 H   0  0  0  0  0  0
    6.8150    4.2086   -4.5880 H   0  0  0  0  0  0
  1  2  2  0  0  0
  1  6  1  0  0  0
  1 39  1  0  0  0
  2  3  1  0  0  0
  2 40  1  0  0  0
  3  4  2  0  0  0
  3 41  1  0  0  0
  4  5  1  0  0  0
  4  7  1  0  0  0
  5  6  2  0  0  0
  5 42  1  0  0  0
  6 43  1  0  0  0
  7  8  1  0  0  0
  7 44  1  0  0  0
  7 45  1  0  0  0
  8  9  1  0  0  0
  9 10  1  0  0  0
  9 11  2  0  0  0
 10 12  1  0  0  0
 10 46  1  0  0  0
 12 13  1  0  0  0
 12 20  1  0  0  0
 12 47  1  0  0  0
 13 14  2  0  0  0
 13 15  1  0  0  0
 15 16  1  0  0  0
 15 48  1  0  0  0
 16 17  1  0  0  0
 16 21  1  0  0  0
 16 49  1  0  0  0
 17 18  1  0  0  0
 17 19  2  0  0  0
 18 50  1  0  0  0
 18 51  1  0  0  0
 20 22  1  0  0  0
 20 52  1  0  0  0
 20 53  1  0  0  0
 21 28  1  0  0  0
 21 54  1  0  0  0
 21 55  1  0  0  0
 22 23  2  0  0  0
 22 27  1  0  0  0
 23 24  1  0  0  0
 23 56  1  0  0  0
 24 25  2  0  0  0
 24 57  1  0  0  0
 25 26  1  0  0  0
 25 32  1  0  0  0
 26 27  2  0  0  0
 26 58  1  0  0  0
 27 59  1  0  0  0
 28 29  1  0  0  0
 28 60  1  0  0  0
 28 61  1  0  0  0
 29 30  1  0  0  0
 29 62  1  0  0  0
 29 63  1  0  0  0
 30 31  1  0  0  0
 30 64  1  0  0  0
 30 65  1  0  0  0
 31 66  1  0  0  0
 31 67  1  0  0  0
 31 75  1  0  0  0
 32 33  2  0  0  0
 32 37  1  0  0  0
 33 34  1  0  0  0
 33 68  1  0  0  0
 34 35  2  0  0  0
 34 69  1  0  0  0
 35 36  1  0  0  0
 35 70  1  0  0  0
 36 37  2  0  0  0
 36 38  1  0  0  0
 37 71  1  0  0  0
 38 72  1  0  0  0
 38 73  1  0  0  0
 38 74  1  0  0  0
M  CHG  1  31   1
M  END
> <chembl_id>
CHEMBL2382001

> <chembl_pref_name>
None

> <i_m_ct_stereo_status>
1

> <s_m_source_file>
sdf/inactives_sanitized.sdf

> <i_m_source_file_index>
409

> <i_lp_mmshare_version>
49012

> <i_f3d_flags>
0

> <s_epik_input>
W2NIXTFbY0hdW2NIXVtjSF1bY0hdYzFbQ0gyXU9DKD1PKVtOSF1bQ0BIXShDKD1PKVtOSF1bQ0BIXShDKD1PKVtOSDJdKVtDSDJdW0NIMl1bQ0gyXVtDSDJdW05IMl0pW0NIMl1jMltjSF1bY0hdYyhbY0hdW2NIXTIpLWMzW2NIXVtjSF1bY0hdYyhbY0hdMylbQ0gzXQ==

> <s_epik_cmdline>
J2VwaWtfcHl0aG9uJywgJy1waHQnLCAnMC41JywgJy1waCcsICc3LjUnLCAnLW50JywgJy1tYScsICcyMDAnLCAnLWltYWUnLCAnPGluZmlsZS5tYWU+JywgJy1vbWFlJywgJzxvdXRmaWxlLm1hZT4n

> <r_lp_tautomer_probability>
1

> <r_epik_Ionization_Penalty>
  0.0014

> <r_epik_Ionization_Penalty_Charging>
  0.0014

> <r_epik_Ionization_Penalty_Neutral>
  0.0000

> <r_epik_State_Penalty>
 -0.0000

> <r_epik_Charging_Adjusted_Penalty>
0.00140340395202934

> <i_epik_Tot_Q>
1

> <i_epik_Tot_abs_Q>
1

> <s_epik_Chemistry_Notes>
This compound has an ester and may undergo hydrolysis at high or low pH.

> <s_lp_Force_Field>
OPLS3e

> <r_lp_Energy>
38.670203

> <b_lp_Chiralities_Consistent>
1

> <s_lp_Variant>
sdf/inactives_sanitized.sdf:409-1

$$$$
sdf/inactives_sanitized.sdf:410
                    3D
 Schrodinger Suite 2020-1.
 64 66  0  0  1  0            999 V2000
   -3.6938    1.7051    1.5957 C   0  0  0  0  0  0
   -3.0208    1.7869    0.4317 N   0  0  0  0  0  0
   -3.8366    0.6517    2.2206 O   0  0  0  0  0  0
   -2.3579    0.6757   -0.2593 C   0  0  2  0  0  0
   -0.8557    0.9811   -0.4028 C   0  0  0  0  0  0
   -0.4923    2.0154   -0.9674 O   0  0  0  0  0  0
   -0.0130    0.0559    0.0886 N   0  0  0  0  0  0
    1.4494    0.1274    0.0109 C   0  0  2  0  0  0
    1.9442   -0.2067   -1.4160 C   0  0  0  0  0  0
    2.8860    0.5907   -1.9277 N   0  0  0  0  0  0
    1.4996   -1.1847   -2.0162 O   0  0  0  0  0  0
   -3.0230    0.4334   -1.6383 C   0  0  0  0  0  0
    2.0365   -0.8351    1.0750 C   0  0  0  0  0  0
   -4.4942    0.0521   -1.5829 C   0  0  0  0  0  0
   -4.8709   -1.2767   -1.2947 C   0  0  0  0  0  0
   -6.2124   -1.6002   -1.1383 C   0  0  0  0  0  0
   -7.1864   -0.6144   -1.2364 C   0  0  0  0  0  0
   -6.8280    0.7053   -1.4806 C   0  0  0  0  0  0
   -5.4923    1.0489   -1.6409 C   0  0  0  0  0  0
    3.5480   -0.6657    1.3210 C   0  0  0  0  0  0
    4.0696   -1.5781    2.4411 C   0  0  0  0  0  0
    5.5787   -1.4188    2.6741 C   0  0  0  0  0  0
    6.0505   -2.2972    3.7585 N   0  3  0  0  0  0
   -4.3100    2.9906    2.1004 C   0  0  0  0  0  0
   -5.4036    2.9385    2.9714 C   0  0  0  0  0  0
   -5.9905    4.0982    3.4686 C   0  0  0  0  0  0
   -3.7928    4.2423    1.7336 C   0  0  0  0  0  0
   -4.3666    5.4423    2.2230 C   0  0  0  0  0  0
   -5.4857    5.3683    3.1061 C   0  0  0  0  0  0
   -6.0591    6.5679    3.5972 C   0  0  0  0  0  0
   -5.5357    7.8024    3.2217 C   0  0  0  0  0  0
   -4.4451    7.8756    2.3614 C   0  0  0  0  0  0
   -3.8583    6.7157    1.8614 C   0  0  0  0  0  0
   -2.9461    2.6838   -0.0253 H   0  0  0  0  0  0
   -2.4745   -0.2429    0.3206 H   0  0  0  0  0  0
   -0.3911   -0.7734    0.5231 H   0  0  0  0  0  0
    1.7417    1.1477    0.2713 H   0  0  0  0  0  0
    3.2277    1.3828   -1.4036 H   0  0  0  0  0  0
    3.2503    0.4122   -2.8524 H   0  0  0  0  0  0
   -2.9288    1.3209   -2.2676 H   0  0  0  0  0  0
   -2.4940   -0.3625   -2.1661 H   0  0  0  0  0  0
    1.5255   -0.6680    2.0253 H   0  0  0  0  0  0
    1.8248   -1.8722    0.8058 H   0  0  0  0  0  0
   -4.1185   -2.0452   -1.1933 H   0  0  0  0  0  0
   -6.4988   -2.6205   -0.9291 H   0  0  0  0  0  0
   -8.2273   -0.8730   -1.1085 H   0  0  0  0  0  0
   -7.5901    1.4686   -1.5364 H   0  0  0  0  0  0
   -5.2215    2.0814   -1.8070 H   0  0  0  0  0  0
    4.0970   -0.8779    0.4028 H   0  0  0  0  0  0
    3.7595    0.3746    1.5713 H   0  0  0  0  0  0
    3.5331   -1.3587    3.3655 H   0  0  0  0  0  0
    3.8439   -2.6168    2.1953 H   0  0  0  0  0  0
    6.1302   -1.6581    1.7641 H   0  0  0  0  0  0
    5.8153   -0.3859    2.9327 H   0  0  0  0  0  0
    7.0441   -2.1691    3.8886 H   0  0  0  0  0  0
    5.8663   -3.2613    3.5191 H   0  0  0  0  0  0
   -5.8184    1.9868    3.2734 H   0  0  0  0  0  0
   -6.8365    4.0314    4.1374 H   0  0  0  0  0  0
   -2.9402    4.3191    1.0731 H   0  0  0  0  0  0
   -6.9058    6.5196    4.2670 H   0  0  0  0  0  0
   -5.9798    8.7106    3.6019 H   0  0  0  0  0  0
   -4.0504    8.8408    2.0798 H   0  0  0  0  0  0
   -3.0107    6.7829    1.1943 H   0  0  0  0  0  0
    5.5686   -2.0664    4.6159 H   0  0  0  0  0  0
  1  2  1  0  0  0
  1  3  2  0  0  0
  1 24  1  0  0  0
  2  4  1  0  0  0
  2 34  1  0  0  0
  4  5  1  0  0  0
  4 12  1  0  0  0
  4 35  1  0  0  0
  5  6  2  0  0  0
  5  7  1  0  0  0
  7  8  1  0  0  0
  7 36  1  0  0  0
  8  9  1  0  0  0
  8 13  1  0  0  0
  8 37  1  0  0  0
  9 10  1  0  0  0
  9 11  2  0  0  0
 10 38  1  0  0  0
 10 39  1  0  0  0
 12 14  1  0  0  0
 12 40  1  0  0  0
 12 41  1  0  0  0
 13 20  1  0  0  0
 13 42  1  0  0  0
 13 43  1  0  0  0
 14 15  2  0  0  0
 14 19  1  0  0  0
 15 16  1  0  0  0
 15 44  1  0  0  0
 16 17  2  0  0  0
 16 45  1  0  0  0
 17 18  1  0  0  0
 17 46  1  0  0  0
 18 19  2  0  0  0
 18 47  1  0  0  0
 19 48  1  0  0  0
 20 21  1  0  0  0
 20 49  1  0  0  0
 20 50  1  0  0  0
 21 22  1  0  0  0
 21 51  1  0  0  0
 21 52  1  0  0  0
 22 23  1  0  0  0
 22 53  1  0  0  0
 22 54  1  0  0  0
 23 55  1  0  0  0
 23 56  1  0  0  0
 23 64  1  0  0  0
 24 25  2  0  0  0
 24 27  1  0  0  0
 25 26  1  0  0  0
 25 57  1  0  0  0
 26 29  2  0  0  0
 26 58  1  0  0  0
 27 28  2  0  0  0
 27 59  1  0  0  0
 28 29  1  0  0  0
 28 33  1  0  0  0
 29 30  1  0  0  0
 30 31  2  0  0  0
 30 60  1  0  0  0
 31 32  1  0  0  0
 31 61  1  0  0  0
 32 33  2  0  0  0
 32 62  1  0  0  0
 33 63  1  0  0  0
M  CHG  1  23   1
M  END
> <chembl_id>
CHEMBL2382066

> <chembl_pref_name>
None

> <i_m_ct_stereo_status>
1

> <s_m_source_file>
sdf/inactives_sanitized.sdf

> <i_m_source_file_index>
410

> <i_lp_mmshare_version>
49012

> <i_f3d_flags>
0

> <s_epik_input>
W2NIXTFbY0hdW2NIXVtjSF1jKGMxMilbY0hdW2NIXWMoW2NIXTIpQyg9TylbTkhdW0NAQEhdKFtDSDJdYzNbY0hdW2NIXVtjSF1bY0hdW2NIXTMpQyg9TylbTkhdW0NASF0oQyg9TylbTkgyXSlbQ0gyXVtDSDJdW0NIMl1bQ0gyXVtOSDJd

> <s_epik_cmdline>
J2VwaWtfcHl0aG9uJywgJy1waHQnLCAnMC41JywgJy1waCcsICc3LjUnLCAnLW50JywgJy1tYScsICcyMDAnLCAnLWltYWUnLCAnPGluZmlsZS5tYWU+JywgJy1vbWFlJywgJzxvdXRmaWxlLm1hZT4n

> <r_lp_tautomer_probability>
1

> <r_epik_Ionization_Penalty>
  0.0014

> <r_epik_Ionization_Penalty_Charging>
  0.0014

> <r_epik_Ionization_Penalty_Neutral>
  0.0000

> <r_epik_State_Penalty>
 -0.0000

> <r_epik_Charging_Adjusted_Penalty>
0.00140340395202934

> <i_epik_Tot_Q>
1

> <i_epik_Tot_abs_Q>
1

> <s_lp_Force_Field>
OPLS3e

> <r_lp_Energy>
39.46163

> <b_lp_Chiralities_Consistent>
1

> <s_lp_Variant>
sdf/inactives_sanitized.sdf:410-1

$$$$
sdf/inactives_sanitized.sdf:411
                    3D
 Schrodinger Suite 2020-1.
 58 59  0  0  1  0            999 V2000
   -2.8490    0.9099    2.5984 C   0  0  0  0  0  0
   -2.9321    1.3003    1.3141 N   0  0  0  0  0  0
   -2.1536   -0.0202    3.0080 O   0  0  0  0  0  0
   -2.1996    0.7059    0.1898 C   0  0  2  0  0  0
   -0.6692    0.9148    0.2869 C   0  0  0  0  0  0
   -0.2133    1.9631    0.7480 O   0  0  0  0  0  0
    0.0816   -0.0856   -0.2020 N   0  0  0  0  0  0
    1.5423   -0.0834   -0.2852 C   0  0  2  0  0  0
    1.9687   -0.7213   -1.6247 C   0  0  0  0  0  0
    2.9375   -0.1006   -2.3036 N   0  0  0  0  0  0
    1.4483   -1.7667   -2.0148 O   0  0  0  0  0  0
   -2.7864    1.2744   -1.1299 C   0  0  0  0  0  0
    2.1067   -0.8387    0.9454 C   0  0  0  0  0  0
   -2.2284    0.6792   -2.4154 C   0  0  0  0  0  0
   -1.1662    1.3132   -3.0961 C   0  0  0  0  0  0
   -0.5863    0.7039   -4.2008 C   0  0  0  0  0  0
   -1.0309   -0.5415   -4.6263 C   0  0  0  0  0  0
   -2.0534   -1.1921   -3.9473 C   0  0  0  0  0  0
   -2.6468   -0.5995   -2.8405 C   0  0  0  0  0  0
    3.6254   -0.6821    1.1438 C   0  0  0  0  0  0
    4.1316   -1.4209    2.3911 C   0  0  0  0  0  0
    5.6411   -1.2472    2.6085 C   0  0  0  0  0  0
    6.0991   -1.9885    3.7960 N   0  3  0  0  0  0
   -3.6970    1.7065    3.5448 C   0  0  0  0  0  0
   -4.9963    1.2795    3.8604 C   0  0  0  0  0  0
   -5.7830    2.0225    4.7435 C   0  0  0  0  0  0
   -5.2803    3.1913    5.3164 C   0  0  0  0  0  0
   -3.9888    3.6201    5.0080 C   0  0  0  0  0  0
   -3.1963    2.8820    4.1256 C   0  0  0  0  0  0
   -5.5057    0.1476    3.3154 F   0  0  0  0  0  0
   -7.0364    1.6086    5.0436 F   0  0  0  0  0  0
   -6.0457    3.9096    6.1709 F   0  0  0  0  0  0
   -3.5038    4.7544    5.5649 F   0  0  0  0  0  0
   -1.9452    3.3184    3.8393 F   0  0  0  0  0  0
   -3.5267    2.0818    1.0810 H   0  0  0  0  0  0
   -2.4002   -0.3682    0.1952 H   0  0  0  0  0  0
   -0.3735   -0.9014   -0.5863 H   0  0  0  0  0  0
    1.8964    0.9502   -0.2607 H   0  0  0  0  0  0
    3.3434    0.7539   -1.9510 H   0  0  0  0  0  0
    3.2614   -0.4793   -3.1817 H   0  0  0  0  0  0
   -3.8658    1.1133   -1.1397 H   0  0  0  0  0  0
   -2.6584    2.3582   -1.1645 H   0  0  0  0  0  0
    1.6140   -0.4720    1.8481 H   0  0  0  0  0  0
    1.8541   -1.8992    0.8851 H   0  0  0  0  0  0
   -0.7958    2.2692   -2.7560 H   0  0  0  0  0  0
    0.2217    1.1944   -4.7232 H   0  0  0  0  0  0
   -0.5704   -1.0125   -5.4823 H   0  0  0  0  0  0
   -2.3804   -2.1679   -4.2749 H   0  0  0  0  0  0
   -3.4243   -1.1235   -2.3039 H   0  0  0  0  0  0
    4.1530   -1.0576    0.2667 H   0  0  0  0  0  0
    3.8719    0.3775    1.2212 H   0  0  0  0  0  0
    3.5919   -1.0618    3.2687 H   0  0  0  0  0  0
    3.8954   -2.4821    2.3001 H   0  0  0  0  0  0
    6.1938   -1.6048    1.7389 H   0  0  0  0  0  0
    5.8871   -0.1924    2.7367 H   0  0  0  0  0  0
    7.0931   -1.8538    3.9163 H   0  0  0  0  0  0
    5.9064   -2.9728    3.6749 H   0  0  0  0  0  0
    5.6133   -1.6502    4.6145 H   0  0  0  0  0  0
  1  2  1  0  0  0
  1  3  2  0  0  0
  1 24  1  0  0  0
  2  4  1  0  0  0
  2 35  1  0  0  0
  4  5  1  0  0  0
  4 12  1  0  0  0
  4 36  1  0  0  0
  5  6  2  0  0  0
  5  7  1  0  0  0
  7  8  1  0  0  0
  7 37  1  0  0  0
  8  9  1  0  0  0
  8 13  1  0  0  0
  8 38  1  0  0  0
  9 10  1  0  0  0
  9 11  2  0  0  0
 10 39  1  0  0  0
 10 40  1  0  0  0
 12 14  1  0  0  0
 12 41  1  0  0  0
 12 42  1  0  0  0
 13 20  1  0  0  0
 13 43  1  0  0  0
 13 44  1  0  0  0
 14 15  2  0  0  0
 14 19  1  0  0  0
 15 16  1  0  0  0
 15 45  1  0  0  0
 16 17  2  0  0  0
 16 46  1  0  0  0
 17 18  1  0  0  0
 17 47  1  0  0  0
 18 19  2  0  0  0
 18 48  1  0  0  0
 19 49  1  0  0  0
 20 21  1  0  0  0
 20 50  1  0  0  0
 20 51  1  0  0  0
 21 22  1  0  0  0
 21 52  1  0  0  0
 21 53  1  0  0  0
 22 23  1  0  0  0
 22 54  1  0  0  0
 22 55  1  0  0  0
 23 56  1  0  0  0
 23 57  1  0  0  0
 23 58  1  0  0  0
 24 25  2  0  0  0
 24 29  1  0  0  0
 25 26  1  0  0  0
 25 30  1  0  0  0
 26 27  2  0  0  0
 26 31  1  0  0  0
 27 28  1  0  0  0
 27 32  1  0  0  0
 28 29  2  0  0  0
 28 33  1  0  0  0
 29 34  1  0  0  0
M  CHG  1  23   1
M  END
> <chembl_id>
CHEMBL2382072

> <chembl_pref_name>
None

> <i_m_ct_stereo_status>
1

> <s_m_source_file>
sdf/inactives_sanitized.sdf

> <i_m_source_file_index>
411

> <i_lp_mmshare_version>
49012

> <i_f3d_flags>
0

> <s_epik_input>
RmMxYyhGKWMoRiljKEYpYyhGKWMxQyg9TylbTkhdW0NAQEhdKFtDSDJdYzJbY0hdW2NIXVtjSF1bY0hdW2NIXTIpQyg9TylbTkhdW0NASF0oQyg9TylbTkgyXSlbQ0gyXVtDSDJdW0NIMl1bQ0gyXVtOSDJd

> <s_epik_cmdline>
J2VwaWtfcHl0aG9uJywgJy1waHQnLCAnMC41JywgJy1waCcsICc3LjUnLCAnLW50JywgJy1tYScsICcyMDAnLCAnLWltYWUnLCAnPGluZmlsZS5tYWU+JywgJy1vbWFlJywgJzxvdXRmaWxlLm1hZT4n

> <r_lp_tautomer_probability>
1

> <r_epik_Ionization_Penalty>
  0.0015

> <r_epik_Ionization_Penalty_Charging>
  0.0014

> <r_epik_Ionization_Penalty_Neutral>
  0.0001

> <r_epik_State_Penalty>
 -0.0000

> <r_epik_Charging_Adjusted_Penalty>
0.00140340395202934

> <i_epik_Tot_Q>
1

> <i_epik_Tot_abs_Q>
1

> <s_lp_Force_Field>
OPLS3e

> <r_lp_Energy>
21.836773

> <b_lp_Chiralities_Consistent>
1

> <s_lp_Variant>
sdf/inactives_sanitized.sdf:411-1

$$$$
sdf/inactives_sanitized.sdf:412
                    3D
 Schrodinger Suite 2020-1.
 55 57  0  0  1  0            999 V2000
   -1.9467    1.6229    0.4599 C   0  0  0  0  0  0
   -0.4398    1.5753    0.1268 C   0  0  0  0  0  0
   -0.1438    2.0573   -1.3100 C   0  0  0  0  0  0
    0.1463    0.1703    0.4108 C   0  0  0  0  0  0
    1.6891    0.0348    0.2547 C   0  0  2  0  0  0
    2.0592   -1.3816    0.3334 N   0  0  0  0  0  0
    1.9710   -2.2596   -0.6804 C   0  0  0  0  0  0
    1.5630   -1.9459   -1.8009 O   0  0  0  0  0  0
    2.4067   -3.7098   -0.3799 C   0  0  0  0  0  0
    3.5658   -4.0904   -1.3407 C   0  0  0  0  0  0
    3.9921   -5.5550   -1.0792 C   0  0  0  0  0  0
    2.8011   -6.5008   -1.2833 C   0  0  0  0  0  0
    1.6221   -6.1174   -0.3709 C   0  0  0  0  0  0
    1.1973   -4.6517   -0.6291 C   0  0  0  0  0  0
    3.1805   -7.8129   -1.0313 O   0  0  0  0  0  0
    2.6491   -8.6841   -2.0054 C   0  0  0  0  0  0
    2.1247   -7.7573   -3.0978 C   0  0  0  0  0  0
    2.3881   -6.4598   -2.6120 O   0  0  0  0  0  0
    2.4684    0.8402    1.3160 C   0  0  0  0  0  0
    2.6979    0.3553    2.4261 O   0  0  0  0  0  0
    2.8248    2.0856    0.9610 N   0  0  0  0  0  0
    3.4551    3.0411    1.8660 C   0  0  0  0  0  0
    4.8562    2.7464    2.3715 C   0  0  0  0  0  0
    4.6385    3.8325    1.3510 C   0  0  0  0  0  0
    2.5308    3.6958    2.8087 C   0  0  0  0  0  0
    1.8042    4.2098    3.5482 N   0  0  0  0  0  0
   -2.5694    1.7722   -0.4221 H   0  0  0  0  0  0
   -2.1642    2.4377    1.1513 H   0  0  0  0  0  0
   -2.2908    0.7025    0.9328 H   0  0  0  0  0  0
    0.0382    2.2786    0.8092 H   0  0  0  0  0  0
   -1.0052    2.5284   -1.7833 H   0  0  0  0  0  0
    0.1671    1.2383   -1.9594 H   0  0  0  0  0  0
    0.6587    2.7954   -1.3091 H   0  0  0  0  0  0
   -0.1369   -0.1380    1.4194 H   0  0  0  0  0  0
   -0.3534   -0.5317   -0.2591 H   0  0  0  0  0  0
    1.9923    0.3862   -0.7339 H   0  0  0  0  0  0
    2.4034   -1.6913    1.2311 H   0  0  0  0  0  0
    2.7303   -3.7528    0.6627 H   0  0  0  0  0  0
    3.2663   -4.0360   -2.3898 H   0  0  0  0  0  0
    4.4495   -3.4776   -1.1539 H   0  0  0  0  0  0
    4.8086   -5.8537   -1.7382 H   0  0  0  0  0  0
    4.3398   -5.6488   -0.0488 H   0  0  0  0  0  0
    0.7908   -6.8042   -0.5368 H   0  0  0  0  0  0
    1.9386   -6.2188    0.6688 H   0  0  0  0  0  0
    0.8468   -4.6075   -1.6628 H   0  0  0  0  0  0
    0.3853   -4.4425    0.0695 H   0  0  0  0  0  0
    3.4424   -9.3148   -2.4084 H   0  0  0  0  0  0
    1.8520   -9.2988   -1.5852 H   0  0  0  0  0  0
    2.6787   -7.9259   -4.0221 H   0  0  0  0  0  0
    1.0561   -7.9017   -3.2602 H   0  0  0  0  0  0
    2.5345    2.4371    0.0600 H   0  0  0  0  0  0
    5.1183    3.0320    3.3907 H   0  0  0  0  0  0
    5.3548    1.8292    2.0560 H   0  0  0  0  0  0
    4.7507    4.8717    1.6618 H   0  0  0  0  0  0
    4.9880    3.6631    0.3321 H   0  0  0  0  0  0
  1  2  1  0  0  0
  1 27  1  0  0  0
  1 28  1  0  0  0
  1 29  1  0  0  0
  2  3  1  0  0  0
  2  4  1  0  0  0
  2 30  1  0  0  0
  3 31  1  0  0  0
  3 32  1  0  0  0
  3 33  1  0  0  0
  4  5  1  0  0  0
  4 34  1  0  0  0
  4 35  1  0  0  0
  5  6  1  0  0  0
  5 19  1  0  0  0
  5 36  1  0  0  0
  6  7  1  0  0  0
  6 37  1  0  0  0
  7  8  2  0  0  0
  7  9  1  0  0  0
  9 10  1  0  0  0
  9 14  1  0  0  0
  9 38  1  0  0  0
 10 11  1  0  0  0
 10 39  1  0  0  0
 10 40  1  0  0  0
 11 12  1  0  0  0
 11 41  1  0  0  0
 11 42  1  0  0  0
 12 13  1  0  0  0
 12 15  1  0  0  0
 12 18  1  0  0  0
 13 14  1  0  0  0
 13 43  1  0  0  0
 13 44  1  0  0  0
 14 45  1  0  0  0
 14 46  1  0  0  0
 15 16  1  0  0  0
 16 17  1  0  0  0
 16 47  1  0  0  0
 16 48  1  0  0  0
 17 18  1  0  0  0
 17 49  1  0  0  0
 17 50  1  0  0  0
 19 20  2  0  0  0
 19 21  1  0  0  0
 21 22  1  0  0  0
 21 51  1  0  0  0
 22 23  1  0  0  0
 22 24  1  0  0  0
 22 25  1  0  0  0
 23 24  1  0  0  0
 23 52  1  0  0  0
 23 53  1  0  0  0
 24 54  1  0  0  0
 24 55  1  0  0  0
 25 26  3  0  0  0
M  END
> <chembl_id>
CHEMBL3640730

> <chembl_pref_name>
None

> <i_m_ct_stereo_status>
1

> <s_m_source_file>
sdf/inactives_sanitized.sdf

> <i_m_source_file_index>
412

> <i_lp_mmshare_version>
49012

> <i_f3d_flags>
0

> <s_epik_input>
W0NIMl0xW0NIMl1DMShDI04pW05IXUMoPU8pW0NASF0oW0NIMl1bQ0hdKFtDSDNdKVtDSDNdKVtOSF1DKD1PKVtDSF0oW0NIMl1bQ0gyXTIpW0NIMl1bQ0gyXUMyM09bQ0gyXVtDSDJdTzM=

> <s_epik_cmdline>
J2VwaWtfcHl0aG9uJywgJy1waHQnLCAnMC41JywgJy1waCcsICc3LjUnLCAnLW50JywgJy1tYScsICcyMDAnLCAnLWltYWUnLCAnPGluZmlsZS5tYWU+JywgJy1vbWFlJywgJzxvdXRmaWxlLm1hZT4n

> <r_lp_tautomer_probability>
1

> <r_epik_Ionization_Penalty>
  0.0000

> <r_epik_Ionization_Penalty_Charging>
  0.0000

> <r_epik_Ionization_Penalty_Neutral>
  0.0000

> <r_epik_State_Penalty>
 -0.0000

> <r_epik_Charging_Adjusted_Penalty>
0

> <i_epik_Tot_Q>
0

> <i_epik_Tot_abs_Q>
0

> <s_lp_Force_Field>
OPLS3e

> <r_lp_Energy>
21.290097

> <b_lp_Chiralities_Consistent>
1

> <s_lp_Variant>
sdf/inactives_sanitized.sdf:412-1

$$$$
sdf/inactives_sanitized.sdf:413
                    3D
 Schrodinger Suite 2020-1.
 66 69  0  0  1  0            999 V2000
    1.9933   -0.3783    3.7800 C   0  0  0  0  0  0
    2.0683   -0.1435    2.2634 C   0  0  0  0  0  0
    3.1226    0.6307    2.0025 F   0  0  0  0  0  0
    2.2855   -1.3082    1.6512 F   0  0  0  0  0  0
    0.7629    0.5028    1.7375 C   0  0  0  0  0  0
    0.6808    0.6775    0.1966 C   0  0  2  0  0  0
    1.7634    1.5161   -0.3282 N   0  0  0  0  0  0
    2.1617    1.5932   -1.6148 C   0  0  0  0  0  0
    1.5810    0.9783   -2.5140 O   0  0  0  0  0  0
    3.1597    2.4933   -1.8512 N   0  0  0  0  0  0
    4.1948    2.8039   -0.8455 C   0  0  0  0  0  0
    5.2884    1.7090   -0.9384 C   0  0  0  0  0  0
    5.8590    1.4535   -2.3768 C   0  0  0  0  0  0
    6.6862    0.1782   -2.4974 C   0  0  0  0  0  0
    8.1067    0.6083   -2.1971 C   0  0  0  0  0  0
    8.1069    2.0352   -2.4992 N   0  0  0  0  0  0
    9.3342    2.8306   -2.4198 C   0  0  0  0  0  0
    9.8048    3.0872   -0.9947 C   0  0  0  0  0  0
   10.9661    2.4683   -0.5258 C   0  0  0  0  0  0
   11.4058    2.7099    0.7732 C   0  0  0  0  0  0
   10.6871    3.5755    1.5952 C   0  0  0  0  0  0
    9.5343    4.2043    1.1297 C   0  0  0  0  0  0
    9.0936    3.9621   -0.1685 C   0  0  0  0  0  0
    6.8798    2.5989   -2.6168 C   0  0  0  0  0  0
    6.6168    3.7897   -2.7993 O   0  0  0  0  0  0
    4.7554    1.5943   -3.4817 C   0  0  0  0  0  0
    3.6661    2.6714   -3.2223 C   0  0  0  0  0  0
   -0.6966    1.2350   -0.2219 C   0  0  0  0  0  0
   -1.0267    2.3706    0.1238 O   0  0  0  0  0  0
   -1.4848    0.4116   -0.9326 N   0  0  0  0  0  0
   -2.8409    0.7488   -1.3529 C   0  0  0  0  0  0
   -3.0280    1.8754   -2.3538 C   0  0  0  0  0  0
   -3.2365    0.4470   -2.7829 C   0  0  0  0  0  0
   -3.8633    0.6201   -0.2994 C   0  0  0  0  0  0
   -4.6658    0.5186    0.5282 N   0  0  0  0  0  0
    2.9152   -0.8254    4.1531 H   0  0  0  0  0  0
    1.1747   -1.0509    4.0385 H   0  0  0  0  0  0
    1.8396    0.5567    4.3200 H   0  0  0  0  0  0
   -0.0781   -0.1109    2.0675 H   0  0  0  0  0  0
    0.6361    1.4724    2.2238 H   0  0  0  0  0  0
    0.8021   -0.3148   -0.2445 H   0  0  0  0  0  0
    2.2614    2.0573    0.3631 H   0  0  0  0  0  0
    4.6073    3.7810   -1.0988 H   0  0  0  0  0  0
    3.7814    2.9553    0.1522 H   0  0  0  0  0  0
    6.0785    1.8906   -0.2064 H   0  0  0  0  0  0
    4.8101    0.7887   -0.5985 H   0  0  0  0  0  0
    6.3512   -0.6304   -1.8467 H   0  0  0  0  0  0
    6.6435   -0.2047   -3.5191 H   0  0  0  0  0  0
    8.3514    0.4546   -1.1451 H   0  0  0  0  0  0
    8.8346    0.0690   -2.8047 H   0  0  0  0  0  0
   10.1174    2.3152   -2.9773 H   0  0  0  0  0  0
    9.2028    3.7954   -2.9127 H   0  0  0  0  0  0
   11.5253    1.7978   -1.1623 H   0  0  0  0  0  0
   12.2999    2.2290    1.1416 H   0  0  0  0  0  0
   11.0282    3.7631    2.6026 H   0  0  0  0  0  0
    8.9861    4.8773    1.7723 H   0  0  0  0  0  0
    8.2013    4.4524   -0.5295 H   0  0  0  0  0  0
    5.1853    1.7150   -4.4780 H   0  0  0  0  0  0
    4.2176    0.6458   -3.5294 H   0  0  0  0  0  0
    4.0927    3.6730   -3.2803 H   0  0  0  0  0  0
    2.8586    2.6890   -3.9561 H   0  0  0  0  0  0
   -1.1729   -0.5317   -1.1125 H   0  0  0  0  0  0
   -3.8985    2.5250   -2.2579 H   0  0  0  0  0  0
   -2.1516    2.4072   -2.7267 H   0  0  0  0  0  0
   -4.2519    0.1059   -2.9868 H   0  0  0  0  0  0
   -2.5038   -0.0032   -3.4537 H   0  0  0  0  0  0
  1  2  1  0  0  0
  1 36  1  0  0  0
  1 37  1  0  0  0
  1 38  1  0  0  0
  2  3  1  0  0  0
  2  4  1  0  0  0
  2  5  1  0  0  0
  5  6  1  0  0  0
  5 39  1  0  0  0
  5 40  1  0  0  0
  6  7  1  0  0  0
  6 28  1  0  0  0
  6 41  1  0  0  0
  7  8  1  0  0  0
  7 42  1  0  0  0
  8  9  2  0  0  0
  8 10  1  0  0  0
 10 11  1  0  0  0
 10 27  1  0  0  0
 11 12  1  0  0  0
 11 43  1  0  0  0
 11 44  1  0  0  0
 12 13  1  0  0  0
 12 45  1  0  0  0
 12 46  1  0  0  0
 13 14  1  0  0  0
 13 24  1  0  0  0
 13 26  1  0  0  0
 14 15  1  0  0  0
 14 47  1  0  0  0
 14 48  1  0  0  0
 15 16  1  0  0  0
 15 49  1  0  0  0
 15 50  1  0  0  0
 16 17  1  0  0  0
 16 24  1  0  0  0
 17 18  1  0  0  0
 17 51  1  0  0  0
 17 52  1  0  0  0
 18 19  2  0  0  0
 18 23  1  0  0  0
 19 20  1  0  0  0
 19 53  1  0  0  0
 20 21  2  0  0  0
 20 54  1  0  0  0
 21 22  1  0  0  0
 21 55  1  0  0  0
 22 23  2  0  0  0
 22 56  1  0  0  0
 23 57  1  0  0  0
 24 25  2  0  0  0
 26 27  1  0  0  0
 26 58  1  0  0  0
 26 59  1  0  0  0
 27 60  1  0  0  0
 27 61  1  0  0  0
 28 29  2  0  0  0
 28 30  1  0  0  0
 30 31  1  0  0  0
 30 62  1  0  0  0
 31 32  1  0  0  0
 31 33  1  0  0  0
 31 34  1  0  0  0
 32 33  1  0  0  0
 32 63  1  0  0  0
 32 64  1  0  0  0
 33 65  1  0  0  0
 33 66  1  0  0  0
 34 35  3  0  0  0
M  END
> <chembl_id>
CHEMBL3640712

> <chembl_pref_name>
None

> <i_m_ct_stereo_status>
1

> <s_m_source_file>
sdf/inactives_sanitized.sdf

> <i_m_source_file_index>
413

> <i_lp_mmshare_version>
49012

> <i_f3d_flags>
0

> <s_epik_input>
W0NIMl0xW0NIMl1DMShDI04pW05IXUMoPU8pW0NASF0oW0NIMl1DKEYpKEYpW0NIM10pW05IXUMoPU8pTihbQ0gyXVtDSDJdMilbQ0gyXVtDSDJdQzIzW0NIMl1bQ0gyXU4oQzM9TylbQ0gyXWM0W2NIXVtjSF1bY0hdW2NIXVtjSF00

> <s_epik_cmdline>
J2VwaWtfcHl0aG9uJywgJy1waHQnLCAnMC41JywgJy1waCcsICc3LjUnLCAnLW50JywgJy1tYScsICcyMDAnLCAnLWltYWUnLCAnPGluZmlsZS5tYWU+JywgJy1vbWFlJywgJzxvdXRmaWxlLm1hZT4n

> <r_lp_tautomer_probability>
1

> <r_epik_Ionization_Penalty>
  0.0000

> <r_epik_Ionization_Penalty_Charging>
  0.0000

> <r_epik_Ionization_Penalty_Neutral>
  0.0000

> <r_epik_State_Penalty>
 -0.0000

> <r_epik_Charging_Adjusted_Penalty>
0

> <i_epik_Tot_Q>
0

> <i_epik_Tot_abs_Q>
0

> <s_lp_Force_Field>
OPLS3e

> <r_lp_Energy>
28.662881

> <b_lp_Chiralities_Consistent>
1

> <s_lp_Variant>
sdf/inactives_sanitized.sdf:413-1

$$$$
 
                    3D
 Schrodinger Suite 2020-1.
 76 79  0  0  1  0            999 V2000
    3.2351   -1.9916   -2.1439 C   0  0  0  0  0  0
   -3.7761    1.6860    2.0224 O   0  0  0  0  0  0
   -3.4474    0.5825    1.3255 C   0  0  0  0  0  0
   -3.3195    0.9290   -0.0145 N   0  0  0  0  0  0
   -3.2584   -0.5331    1.8165 O   0  0  0  0  0  0
   -2.8590   -0.0372   -1.0336 C   0  0  2  0  0  0
   -1.3168   -0.1263   -1.1970 C   0  0  0  0  0  0
   -0.5709    0.2780   -0.1501 N   0  0  0  0  0  0
   -0.8418   -0.5730   -2.2418 O   0  0  0  0  0  0
    0.8876    0.3913   -0.0504 C   0  0  2  0  0  0
    1.6367   -0.8308   -0.5714 C   0  0  0  0  0  0
    1.2950    0.7033    1.4088 C   0  0  0  0  0  0
    2.5139   -0.8142   -1.5937 C   0  0  0  0  0  0
   -3.6443    0.1685   -2.3565 C   0  0  0  0  0  0
   -5.1504   -0.0155   -2.2474 C   0  0  0  0  0  0
   -5.9849    1.0780   -1.9306 C   0  0  0  0  0  0
   -7.3442    0.8791   -1.7280 C   0  0  0  0  0  0
   -7.8844   -0.3983   -1.8095 C   0  0  0  0  0  0
   -7.0691   -1.4896   -2.0821 C   0  0  0  0  0  0
   -5.7073   -1.3114   -2.2869 C   0  0  0  0  0  0
    4.4110   -1.8240   -2.8307 N   0  3  0  0  0  0
    5.0886   -2.8801   -3.3526 C   0  0  0  0  0  0
    4.6124   -4.1802   -3.1887 C   0  0  0  0  0  0
    3.4296   -4.3887   -2.4847 C   0  0  0  0  0  0
    2.7428   -3.2944   -1.9611 C   0  0  0  0  0  0
    0.6082    1.9450    2.0208 C   0  0  0  0  0  0
    1.0151    2.1922    3.4656 C   0  0  0  0  0  0
    0.4218    1.4485    4.4897 C   0  0  0  0  0  0
    0.7830    1.6787    5.8144 C   0  0  0  0  0  0
    1.7370    2.6500    6.1103 C   0  0  0  0  0  0
    2.3336    3.3933    5.0938 C   0  0  0  0  0  0
    1.9730    3.1636    3.7685 C   0  0  0  0  0  0
   -3.8925    1.6532    3.4394 C   0  0  0  0  0  0
   -3.8356    3.0701    3.9796 C   0  0  0  0  0  0
    4.9909   -0.4735   -3.0435 C   0  0  0  0  0  0
   -5.0130    3.7320    4.3352 C   0  0  0  0  0  0
   -4.9538    5.0327    4.8300 C   0  0  0  0  0  0
   -3.7187    5.6639    4.9674 C   0  0  0  0  0  0
   -2.5417    5.0077    4.6133 C   0  0  0  0  0  0
   -2.6009    3.7087    4.1168 C   0  0  0  0  0  0
   -3.4695    1.8874   -0.2940 H   0  0  0  0  0  0
   -3.1462   -1.0417   -0.7126 H   0  0  0  0  0  0
   -1.0748    0.6661    0.6342 H   0  0  0  0  0  0
    1.1702    1.2545   -0.6571 H   0  0  0  0  0  0
    1.4156   -1.7567   -0.0607 H   0  0  0  0  0  0
    1.0764   -0.1653    2.0335 H   0  0  0  0  0  0
    2.3768    0.8407    1.4566 H   0  0  0  0  0  0
    2.6963    0.1391   -2.0666 H   0  0  0  0  0  0
   -3.4512    1.1692   -2.7470 H   0  0  0  0  0  0
   -3.2873   -0.5217   -3.1230 H   0  0  0  0  0  0
   -5.5698    2.0715   -1.8436 H   0  0  0  0  0  0
   -7.9824    1.7193   -1.4970 H   0  0  0  0  0  0
   -8.9420   -0.5457   -1.6467 H   0  0  0  0  0  0
   -7.4941   -2.4815   -2.1255 H   0  0  0  0  0  0
   -5.0769   -2.1680   -2.4761 H   0  0  0  0  0  0
    6.0020   -2.6681   -3.8904 H   0  0  0  0  0  0
    5.1546   -5.0174   -3.6036 H   0  0  0  0  0  0
    3.0448   -5.3890   -2.3490 H   0  0  0  0  0  0
    1.8194   -3.4693   -1.4287 H   0  0  0  0  0  0
    0.8256    2.8298    1.4201 H   0  0  0  0  0  0
   -0.4775    1.8388    1.9939 H   0  0  0  0  0  0
   -0.3208    0.6976    4.2603 H   0  0  0  0  0  0
    0.3253    1.1073    6.6084 H   0  0  0  0  0  0
    2.0169    2.8286    7.1380 H   0  0  0  0  0  0
    3.0719    4.1447    5.3327 H   0  0  0  0  0  0
    2.4360    3.7412    2.9816 H   0  0  0  0  0  0
   -4.8304    1.1758    3.7272 H   0  0  0  0  0  0
   -3.0873    1.0715    3.8926 H   0  0  0  0  0  0
    5.9861   -0.5499   -3.4853 H   0  0  0  0  0  0
    5.0659    0.0183   -2.0724 H   0  0  0  0  0  0
    4.3243    0.0680   -3.7161 H   0  0  0  0  0  0
   -5.9705    3.2432    4.2280 H   0  0  0  0  0  0
   -5.8608    5.5502    5.1061 H   0  0  0  0  0  0
   -3.6731    6.6722    5.3517 H   0  0  0  0  0  0
   -1.5884    5.5039    4.7224 H   0  0  0  0  0  0
   -1.6900    3.2016    3.8378 H   0  0  0  0  0  0
  1 13  1  0  0  0
  1 21  2  0  0  0
  1 25  1  0  0  0
  2  3  1  0  0  0
  2 33  1  0  0  0
  3  4  1  0  0  0
  3  5  2  0  0  0
  4  6  1  0  0  0
  4 41  1  0  0  0
  6  7  1  0  0  0
  6 14  1  0  0  0
  6 42  1  0  0  0
  7  8  1  0  0  0
  7  9  2  0  0  0
  8 10  1  0  0  0
  8 43  1  0  0  0
 10 11  1  0  0  0
 10 12  1  0  0  0
 10 44  1  0  0  0
 11 13  2  0  0  0
 11 45  1  0  0  0
 12 26  1  0  0  0
 12 46  1  0  0  0
 12 47  1  0  0  0
 13 48  1  0  0  0
 14 15  1  0  0  0
 14 49  1  0  0  0
 14 50  1  0  0  0
 15 16  2  0  0  0
 15 20  1  0  0  0
 16 17  1  0  0  0
 16 51  1  0  0  0
 17 18  2  0  0  0
 17 52  1  0  0  0
 18 19  1  0  0  0
 18 53  1  0  0  0
 19 20  2  0  0  0
 19 54  1  0  0  0
 20 55  1  0  0  0
 21 22  1  0  0  0
 21 35  1  0  0  0
 22 23  2  0  0  0
 22 56  1  0  0  0
 23 24  1  0  0  0
 23 57  1  0  0  0
 24 25  2  0  0  0
 24 58  1  0  0  0
 25 59  1  0  0  0
 26 27  1  0  0  0
 26 60  1  0  0  0
 26 61  1  0  0  0
 27 28  2  0  0  0
 27 32  1  0  0  0
 28 29  1  0  0  0
 28 62  1  0  0  0
 29 30  2  0  0  0
 29 63  1  0  0  0
 30 31  1  0  0  0
 30 64  1  0  0  0
 31 32  2  0  0  0
 31 65  1  0  0  0
 32 66  1  0  0  0
 33 34  1  0  0  0
 33 67  1  0  0  0
 33 68  1  0  0  0
 34 36  2  0  0  0
 34 40  1  0  0  0
 35 69  1  0  0  0
 35 70  1  0  0  0
 35 71  1  0  0  0
 36 37  1  0  0  0
 36 72  1  0  0  0
 37 38  2  0  0  0
 37 73  1  0  0  0
 38 39  1  0  0  0
 38 74  1  0  0  0
 39 40  2  0  0  0
 39 75  1  0  0  0
 40 76  1  0  0  0
M  CHG  1  21   1
M  END
> <chembl_id>
CHEMBL4519086

> <chembl_pref_name>
None

> <i_m_ct_stereo_status>
1

> <s_m_source_file>
sdf/inactives_sanitized.sdf

> <i_m_source_file_index>
414

> <i_lp_mmshare_version>
49012

> <i_f3d_flags>
0

> <s_epik_input>
W2NIXTFbY0hdW2NIXVtjSF1bbitdKFtDSDNdKWMxXFtDSF09W0NIXVxbQ0BIXShbQ0gyXVtDSDJdYzJbY0hdW2NIXVtjSF1bY0hdW2NIXTIpW05IXUMoPU8pW0NASF0oW0NIMl1jM1tjSF1bY0hdW2NIXVtjSF1bY0hdMylbTkhdQyg9TylPW0NIMl1jNFtjSF1bY0hdW2NIXVtjSF1bY0hdNA==

> <s_epik_cmdline>
J2VwaWtfcHl0aG9uJywgJy1waHQnLCAnMC41JywgJy1waCcsICc3LjUnLCAnLW50JywgJy1tYScsICcyMDAnLCAnLWltYWUnLCAnPGluZmlsZS5tYWU+JywgJy1vbWFlJywgJzxvdXRmaWxlLm1hZT4n

> <r_lp_tautomer_probability>
1

> <r_epik_Ionization_Penalty>
  0.0000

> <r_epik_Ionization_Penalty_Charging>
  0.0000

> <r_epik_Ionization_Penalty_Neutral>
  0.0000

> <r_epik_State_Penalty>
 -0.0000

> <r_epik_Charging_Adjusted_Penalty>
0

> <i_epik_Tot_Q>
1

> <i_epik_Tot_abs_Q>
1

> <s_epik_Chemistry_Notes>
This compound has an ester and may undergo hydrolysis at high or low pH.

> <s_lp_Force_Field>
OPLS3e

> <r_lp_Energy>
53.665952

> <b_lp_Chiralities_Consistent>
1

> <s_lp_Variant>
 -1

$$$$
sdf/inactives_sanitized.sdf:415
                    3D
 Schrodinger Suite 2020-1.
 75 78  0  0  1  0            999 V2000
    1.6498   -0.4136   -4.2930 S   0  0  0  0  0  0
   -3.6775    1.4060    1.8054 C   0  0  0  0  0  0
   -3.7436    1.1957    0.4746 N   0  0  0  0  0  0
   -1.4322    0.6551   -0.3080 C   0  0  0  0  0  0
   -4.5374    2.3532    2.2766 N   0  0  0  0  0  0
    0.8400   -0.5338   -2.6924 C   0  0  0  0  0  0
   -2.9224    0.2544   -0.2962 C   0  0  2  0  0  0
    1.4738   -0.1660   -1.5602 C   0  0  0  0  0  0
   -0.5503   -0.3266   -0.0441 N   0  0  0  0  0  0
    2.9715    0.2034   -4.1252 O   0  0  0  0  0  0
    1.5188   -1.7136   -4.9609 O   0  0  0  0  0  0
    0.6166    0.7575   -5.1711 C   0  0  0  0  0  0
   -2.9814    0.7006    2.5413 O   0  0  0  0  0  0
   -1.1127    1.8085   -0.6037 O   0  0  0  0  0  0
   -3.4692    0.1444   -1.7424 C   0  0  0  0  0  0
   -3.8313    4.8997    3.1970 O   0  0  0  0  0  0
    0.9109   -0.1888   -0.1327 C   0  0  1  0  0  0
   -4.8861   -0.3938   -1.8598 C   0  0  0  0  0  0
    3.1084   -1.0278    0.9714 C   0  0  0  0  0  0
   -4.8953    3.5429    1.4742 C   0  0  0  0  0  0
   -4.5749    2.6321    3.7249 C   0  0  0  0  0  0
    1.5953   -1.2474    0.7627 C   0  0  0  0  0  0
    3.7396   -2.0918    1.8574 C   0  0  0  0  0  0
   -3.8450    4.6329    1.7937 C   0  0  0  0  0  0
   -3.5407    3.7523    3.9973 C   0  0  0  0  0  0
   -0.4277    0.2993   -5.9790 C   0  0  0  0  0  0
    0.8549    2.1277   -5.0349 C   0  0  0  0  0  0
   -5.1181   -1.7852   -1.8333 C   0  0  0  0  0  0
   -5.9903    0.4850   -1.8263 C   0  0  0  0  0  0
    3.8140   -1.8971    3.2394 C   0  0  0  0  0  0
    4.2431   -3.2641    1.2863 C   0  0  0  0  0  0
    0.0477    3.0403   -5.7089 C   0  0  0  0  0  0
   -1.2335    1.2140   -6.6521 C   0  0  0  0  0  0
   -7.2828   -0.0229   -1.8368 C   0  0  0  0  0  0
    4.3941   -2.8714    4.0479 C   0  0  0  0  0  0
    4.8229   -4.2378    2.0953 C   0  0  0  0  0  0
   -6.4180   -2.2733   -1.8451 C   0  0  0  0  0  0
    4.8964   -4.0367    3.4721 C   0  0  0  0  0  0
   -7.4952   -1.3959   -1.8525 C   0  0  0  0  0  0
   -0.9921    2.5796   -6.5144 C   0  0  0  0  0  0
   -4.3662    1.7704   -0.0739 H   0  0  0  0  0  0
   -0.1727   -0.9076   -2.7033 H   0  0  0  0  0  0
   -3.0184   -0.7311    0.1660 H   0  0  0  0  0  0
    2.4907    0.1900   -1.6322 H   0  0  0  0  0  0
   -0.9017   -1.2544    0.1436 H   0  0  0  0  0  0
   -3.4369    1.1199   -2.2320 H   0  0  0  0  0  0
   -2.8217   -0.5039   -2.3366 H   0  0  0  0  0  0
    1.1579    0.7820    0.3047 H   0  0  0  0  0  0
    3.6332   -1.0193    0.0151 H   0  0  0  0  0  0
    3.2893   -0.0440    1.4076 H   0  0  0  0  0  0
   -5.0877    3.3550    0.4174 H   0  0  0  0  0  0
   -5.8638    3.8558    1.8666 H   0  0  0  0  0  0
   -5.5794    3.0165    3.9064 H   0  0  0  0  0  0
   -4.4985    1.7458    4.3566 H   0  0  0  0  0  0
    1.4259   -2.2400    0.3410 H   0  0  0  0  0  0
    1.1134   -1.2531    1.7426 H   0  0  0  0  0  0
   -2.8512    4.3330    1.4554 H   0  0  0  0  0  0
   -4.0815    5.5487    1.2521 H   0  0  0  0  0  0
   -2.5242    3.4059    3.8005 H   0  0  0  0  0  0
   -3.5643    4.0314    5.0506 H   0  0  0  0  0  0
   -0.6199   -0.7583   -6.0861 H   0  0  0  0  0  0
    1.6581    2.4864   -4.4078 H   0  0  0  0  0  0
   -4.2868   -2.4745   -1.8073 H   0  0  0  0  0  0
   -5.8352    1.5537   -1.7949 H   0  0  0  0  0  0
    3.4242   -0.9944    3.6870 H   0  0  0  0  0  0
    4.1856   -3.4212    0.2188 H   0  0  0  0  0  0
    0.2266    4.1006   -5.6077 H   0  0  0  0  0  0
   -2.0422    0.8665   -7.2781 H   0  0  0  0  0  0
   -8.1261    0.6516   -1.8245 H   0  0  0  0  0  0
    4.4549   -2.7244    5.1162 H   0  0  0  0  0  0
    5.2144   -5.1442    1.6575 H   0  0  0  0  0  0
   -6.5918   -3.3393   -1.8396 H   0  0  0  0  0  0
    5.3473   -4.7919    4.0991 H   0  0  0  0  0  0
   -8.5034   -1.7832   -1.8579 H   0  0  0  0  0  0
   -1.6175    3.2881   -7.0374 H   0  0  0  0  0  0
  1  6  1  0  0  0
  1 10  2  0  0  0
  1 11  2  0  0  0
  1 12  1  0  0  0
  2  3  1  0  0  0
  2  5  1  0  0  0
  2 13  2  0  0  0
  3  7  1  0  0  0
  3 41  1  0  0  0
  4  9  1  0  0  0
  4  7  1  0  0  0
  4 14  2  0  0  0
  5 20  1  0  0  0
  5 21  1  0  0  0
  6  8  2  0  0  0
  6 42  1  0  0  0
  7 15  1  0  0  0
  7 43  1  0  0  0
  8 17  1  0  0  0
  8 44  1  0  0  0
  9 17  1  0  0  0
  9 45  1  0  0  0
 12 26  2  0  0  0
 12 27  1  0  0  0
 15 18  1  0  0  0
 15 46  1  0  0  0
 15 47  1  0  0  0
 16 25  1  0  0  0
 16 24  1  0  0  0
 17 22  1  0  0  0
 17 48  1  0  0  0
 18 28  2  0  0  0
 18 29  1  0  0  0
 19 22  1  0  0  0
 19 23  1  0  0  0
 19 49  1  0  0  0
 19 50  1  0  0  0
 20 24  1  0  0  0
 20 51  1  0  0  0
 20 52  1  0  0  0
 21 25  1  0  0  0
 21 53  1  0  0  0
 21 54  1  0  0  0
 22 55  1  0  0  0
 22 56  1  0  0  0
 23 30  2  0  0  0
 23 31  1  0  0  0
 24 57  1  0  0  0
 24 58  1  0  0  0
 25 59  1  0  0  0
 25 60  1  0  0  0
 26 33  1  0  0  0
 26 61  1  0  0  0
 27 32  2  0  0  0
 27 62  1  0  0  0
 28 37  1  0  0  0
 28 63  1  0  0  0
 29 34  2  0  0  0
 29 64  1  0  0  0
 30 35  1  0  0  0
 30 65  1  0  0  0
 31 36  2  0  0  0
 31 66  1  0  0  0
 32 40  1  0  0  0
 32 67  1  0  0  0
 33 40  2  0  0  0
 33 68  1  0  0  0
 34 39  1  0  0  0
 34 69  1  0  0  0
 35 38  2  0  0  0
 35 70  1  0  0  0
 36 38  1  0  0  0
 36 71  1  0  0  0
 37 39  2  0  0  0
 37 72  1  0  0  0
 38 73  1  0  0  0
 39 74  1  0  0  0
 40 75  1  0  0  0
M  END
> <chembl_id>
CHEMBL327624

> <chembl_pref_name>
None

> <i_m_ct_stereo_status>
1

> <s_m_source_file>
sdf/inactives_sanitized.sdf

> <i_m_source_file_index>
415

> <i_lp_mmshare_version>
49012

> <i_f3d_flags>
0

> <s_epik_input>
W2NIXTFbY0hdW2NIXVtjSF1bY0hdYzFTKD1PKSg9TykvW0NIXT1bQ0hdL1tDQEhdKFtDSDJdW0NIMl1jMltjSF1bY0hdW2NIXVtjSF1bY0hdMilbTkhdQyg9TylbQ0BIXShbQ0gyXWMzW2NIXVtjSF1bY0hdW2NIXVtjSF0zKVtOSF1DKD1PKU40W0NIMl1bQ0gyXU9bQ0gyXVtDSDJdNA==

> <s_epik_cmdline>
J2VwaWtfcHl0aG9uJywgJy1waHQnLCAnMC41JywgJy1waCcsICc3LjUnLCAnLW50JywgJy1tYScsICcyMDAnLCAnLWltYWUnLCAnPGluZmlsZS5tYWU+JywgJy1vbWFlJywgJzxvdXRmaWxlLm1hZT4n

> <r_lp_tautomer_probability>
1

> <r_epik_Ionization_Penalty>
  0.0000

> <r_epik_Ionization_Penalty_Charging>
  0.0000

> <r_epik_Ionization_Penalty_Neutral>
  0.0000

> <r_epik_State_Penalty>
 -0.0000

> <r_epik_Charging_Adjusted_Penalty>
0

> <i_epik_Tot_Q>
0

> <i_epik_Tot_abs_Q>
0

> <s_lp_Force_Field>
OPLS3e

> <r_lp_Energy>
37.34434

> <b_lp_Chiralities_Consistent>
1

> <s_lp_Variant>
sdf/inactives_sanitized.sdf:415-1

$$$$
sdf/inactives_sanitized.sdf:416
                    3D
 Schrodinger Suite 2020-1.
 62 63  0  0  1  0            999 V2000
   -6.7036    6.4307    4.1574 C   0  0  0  0  0  0
   -7.1762    5.3843    3.3677 C   0  0  0  0  0  0
   -6.3850    4.2551    3.1740 C   0  0  0  0  0  0
   -5.1225    4.1783    3.7691 C   0  0  0  0  0  0
   -4.6547    5.2296    4.5613 C   0  0  0  0  0  0
   -5.4469    6.3584    4.7551 C   0  0  0  0  0  0
   -4.2612    2.9437    3.5667 C   0  0  0  0  0  0
   -3.9822    2.7692    2.1824 O   0  0  0  0  0  0
   -3.2691    1.7117    1.7520 C   0  0  0  0  0  0
   -3.1630    1.7778    0.3679 N   0  0  0  0  0  0
   -2.7940    0.8371    2.4817 O   0  0  0  0  0  0
   -2.4527    0.7379   -0.3931 C   0  0  2  0  0  0
   -0.9431    1.0379   -0.4896 C   0  0  0  0  0  0
   -0.5629    2.0688   -1.0476 O   0  0  0  0  0  0
   -0.1185    0.1164    0.0381 N   0  0  0  0  0  0
    1.3458    0.1873    0.0149 C   0  0  2  0  0  0
    1.8946   -0.1136   -1.3995 C   0  0  0  0  0  0
    2.8539    0.6959   -1.8567 N   0  0  0  0  0  0
    1.4739   -1.0772   -2.0389 O   0  0  0  0  0  0
   -3.1147    0.5426   -1.7799 C   0  0  0  0  0  0
    1.8928   -0.8002    1.0777 C   0  0  0  0  0  0
   -4.5701    0.1024   -1.7459 C   0  0  0  0  0  0
   -4.8942   -1.2570   -1.5516 C   0  0  0  0  0  0
   -6.2219   -1.6428   -1.4207 C   0  0  0  0  0  0
   -7.2341   -0.6915   -1.4524 C   0  0  0  0  0  0
   -6.9275    0.6552   -1.6026 C   0  0  0  0  0  0
   -5.6062    1.0612   -1.7345 C   0  0  0  0  0  0
    3.3934   -0.6364    1.3869 C   0  0  0  0  0  0
    3.8750   -1.5891    2.4911 C   0  0  0  0  0  0
    5.3710   -1.4284    2.7959 C   0  0  0  0  0  0
    5.8033   -2.3474    3.8629 N   0  3  0  0  0  0
   -7.3180    7.3060    4.3086 H   0  0  0  0  0  0
   -8.1520    5.4482    2.9091 H   0  0  0  0  0  0
   -6.7516    3.4426    2.5632 H   0  0  0  0  0  0
   -3.6811    5.1751    5.0265 H   0  0  0  0  0  0
   -5.0892    7.1735    5.3668 H   0  0  0  0  0  0
   -3.3280    3.0412    4.1245 H   0  0  0  0  0  0
   -4.7888    2.0749    3.9641 H   0  0  0  0  0  0
   -3.5591    2.5624   -0.1287 H   0  0  0  0  0  0
   -2.5826   -0.2210    0.1176 H   0  0  0  0  0  0
   -0.5131   -0.7062    0.4707 H   0  0  0  0  0  0
    1.6267    1.2015    0.3097 H   0  0  0  0  0  0
    3.1734    1.4764   -1.3019 H   0  0  0  0  0  0
    3.2528    0.5400   -2.7710 H   0  0  0  0  0  0
   -3.0545    1.4674   -2.3571 H   0  0  0  0  0  0
   -2.5562   -0.1998   -2.3532 H   0  0  0  0  0  0
    1.3449   -0.6582    2.0113 H   0  0  0  0  0  0
    1.6939   -1.8303    0.7746 H   0  0  0  0  0  0
   -4.1120   -2.0004   -1.5051 H   0  0  0  0  0  0
   -6.4678   -2.6856   -1.2848 H   0  0  0  0  0  0
   -8.2641   -0.9992   -1.3466 H   0  0  0  0  0  0
   -7.7190    1.3902   -1.6079 H   0  0  0  0  0  0
   -5.3757    2.1123   -1.8293 H   0  0  0  0  0  0
    3.9780   -0.8126    0.4834 H   0  0  0  0  0  0
    3.5909    0.3943    1.6843 H   0  0  0  0  0  0
    3.2960   -1.4126    3.3988 H   0  0  0  0  0  0
    3.6712   -2.6188    2.1935 H   0  0  0  0  0  0
    5.9636   -1.6261    1.9018 H   0  0  0  0  0  0
    5.5871   -0.4054    3.1064 H   0  0  0  0  0  0
    6.7903   -2.2213    4.0381 H   0  0  0  0  0  0
    5.6334   -3.3016    3.5784 H   0  0  0  0  0  0
    5.2860   -2.1523    4.7082 H   0  0  0  0  0  0
  1  2  2  0  0  0
  1  6  1  0  0  0
  1 32  1  0  0  0
  2  3  1  0  0  0
  2 33  1  0  0  0
  3  4  2  0  0  0
  3 34  1  0  0  0
  4  5  1  0  0  0
  4  7  1  0  0  0
  5  6  2  0  0  0
  5 35  1  0  0  0
  6 36  1  0  0  0
  7  8  1  0  0  0
  7 37  1  0  0  0
  7 38  1  0  0  0
  8  9  1  0  0  0
  9 10  1  0  0  0
  9 11  2  0  0  0
 10 12  1  0  0  0
 10 39  1  0  0  0
 12 13  1  0  0  0
 12 20  1  0  0  0
 12 40  1  0  0  0
 13 14  2  0  0  0
 13 15  1  0  0  0
 15 16  1  0  0  0
 15 41  1  0  0  0
 16 17  1  0  0  0
 16 21  1  0  0  0
 16 42  1  0  0  0
 17 18  1  0  0  0
 17 19  2  0  0  0
 18 43  1  0  0  0
 18 44  1  0  0  0
 20 22  1  0  0  0
 20 45  1  0  0  0
 20 46  1  0  0  0
 21 28  1  0  0  0
 21 47  1  0  0  0
 21 48  1  0  0  0
 22 23  2  0  0  0
 22 27  1  0  0  0
 23 24  1  0  0  0
 23 49  1  0  0  0
 24 25  2  0  0  0
 24 50  1  0  0  0
 25 26  1  0  0  0
 25 51  1  0  0  0
 26 27  2  0  0  0
 26 52  1  0  0  0
 27 53  1  0  0  0
 28 29  1  0  0  0
 28 54  1  0  0  0
 28 55  1  0  0  0
 29 30  1  0  0  0
 29 56  1  0  0  0
 29 57  1  0  0  0
 30 31  1  0  0  0
 30 58  1  0  0  0
 30 59  1  0  0  0
 31 60  1  0  0  0
 31 61  1  0  0  0
 31 62  1  0  0  0
M  CHG  1  31   1
M  END
> <chembl_id>
CHEMBL2381988

> <chembl_pref_name>
None

> <i_m_ct_stereo_status>
1

> <s_m_source_file>
sdf/inactives_sanitized.sdf

> <i_m_source_file_index>
416

> <i_lp_mmshare_version>
49012

> <i_f3d_flags>
0

> <s_epik_input>
W2NIXTFbY0hdW2NIXVtjSF1bY0hdYzFbQ0gyXU9DKD1PKVtOSF1bQ0BASF0oW0NIMl1jMltjSF1bY0hdW2NIXVtjSF1bY0hdMilDKD1PKVtOSF1bQ0BIXShDKD1PKVtOSDJdKVtDSDJdW0NIMl1bQ0gyXVtDSDJdW05IMl0=

> <s_epik_cmdline>
J2VwaWtfcHl0aG9uJywgJy1waHQnLCAnMC41JywgJy1waCcsICc3LjUnLCAnLW50JywgJy1tYScsICcyMDAnLCAnLWltYWUnLCAnPGluZmlsZS5tYWU+JywgJy1vbWFlJywgJzxvdXRmaWxlLm1hZT4n

> <r_lp_tautomer_probability>
1

> <r_epik_Ionization_Penalty>
  0.0014

> <r_epik_Ionization_Penalty_Charging>
  0.0014

> <r_epik_Ionization_Penalty_Neutral>
  0.0000

> <r_epik_State_Penalty>
 -0.0000

> <r_epik_Charging_Adjusted_Penalty>
0.00140340395202934

> <i_epik_Tot_Q>
1

> <i_epik_Tot_abs_Q>
1

> <s_epik_Chemistry_Notes>
This compound has an ester and may undergo hydrolysis at high or low pH.

> <s_lp_Force_Field>
OPLS3e

> <r_lp_Energy>
30.331523

> <b_lp_Chiralities_Consistent>
1

> <s_lp_Variant>
sdf/inactives_sanitized.sdf:416-1

$$$$
sdf/inactives_sanitized.sdf:417
                    3D
 Schrodinger Suite 2020-1.
 65 66  0  0  1  0            999 V2000
   -5.7944    3.8221    7.1288 C   0  0  0  0  0  0
   -5.2137    2.6847    7.6845 C   0  0  0  0  0  0
   -4.5175    1.7969    6.8685 C   0  0  0  0  0  0
   -4.3998    2.0445    5.4982 C   0  0  0  0  0  0
   -4.9897    3.1908    4.9476 C   0  0  0  0  0  0
   -5.6856    4.0785    5.7642 C   0  0  0  0  0  0
   -3.6304    1.0349    4.6496 C   0  0  0  0  0  0
   -3.4570    1.4751    3.3054 O   0  0  0  0  0  0
   -2.8197    0.7062    2.4029 C   0  0  0  0  0  0
   -2.8081    1.3704    1.1820 N   0  0  0  0  0  0
   -2.3272   -0.3999    2.6413 O   0  0  0  0  0  0
   -2.1964    0.7667   -0.0131 C   0  0  2  0  0  0
   -0.6766    1.0245   -0.0603 C   0  0  0  0  0  0
   -0.2533    2.1788    0.0226 O   0  0  0  0  0  0
    0.1031   -0.0621   -0.1893 N   0  0  0  0  0  0
    1.5696   -0.0603   -0.1418 C   0  0  2  0  0  0
    2.1497   -0.8174   -1.3542 C   0  0  0  0  0  0
    3.2832   -0.3366   -1.8732 N   0  0  0  0  0  0
    1.6001   -1.8318   -1.7839 O   0  0  0  0  0  0
   -2.9235    1.2609   -1.2883 C   0  0  0  0  0  0
    2.0447   -0.6955    1.1924 C   0  0  0  0  0  0
   -4.4072    0.9324   -1.3541 C   0  0  0  0  0  0
   -5.3632    1.8325   -0.8352 C   0  0  0  0  0  0
   -6.7056    1.4787   -0.8029 C   0  0  0  0  0  0
   -7.1109    0.2291   -1.2546 C   0  0  0  0  0  0
   -6.1770   -0.6817   -1.7324 C   0  0  0  0  0  0
   -4.8298   -0.3472   -1.7725 C   0  0  0  0  0  0
    1.5375    0.0242    2.4582 C   0  0  0  0  0  0
    2.0305   -0.6282    3.7564 C   0  0  0  0  0  0
    1.4415    0.0520    5.0009 C   0  0  0  0  0  0
    1.9379   -0.6131    6.1983 N   0  3  0  0  0  0
    1.3927   -0.0043    7.4036 C   0  0  0  0  0  0
   -6.3350    4.5109    7.7614 H   0  0  0  0  0  0
   -5.3039    2.4920    8.7434 H   0  0  0  0  0  0
   -4.0702    0.9147    7.3037 H   0  0  0  0  0  0
   -4.9182    3.4036    3.8912 H   0  0  0  0  0  0
   -6.1403    4.9620    5.3408 H   0  0  0  0  0  0
   -2.6520    0.8680    5.1033 H   0  0  0  0  0  0
   -4.1704    0.0866    4.6598 H   0  0  0  0  0  0
   -3.2099    2.2936    1.1101 H   0  0  0  0  0  0
   -2.3679   -0.3136    0.0115 H   0  0  0  0  0  0
   -0.3282   -0.9709   -0.2802 H   0  0  0  0  0  0
    1.9368    0.9680   -0.1800 H   0  0  0  0  0  0
    3.7104    0.4940   -1.4903 H   0  0  0  0  0  0
    3.7158   -0.8001   -2.6592 H   0  0  0  0  0  0
   -2.8118    2.3425   -1.3876 H   0  0  0  0  0  0
   -2.4480    0.8323   -2.1728 H   0  0  0  0  0  0
    1.7330   -1.7412    1.2358 H   0  0  0  0  0  0
    3.1360   -0.7088    1.2190 H   0  0  0  0  0  0
   -5.0547    2.7978   -0.4611 H   0  0  0  0  0  0
   -7.4361    2.1738   -0.4160 H   0  0  0  0  0  0
   -8.1561   -0.0408   -1.2215 H   0  0  0  0  0  0
   -6.4991   -1.6576   -2.0648 H   0  0  0  0  0  0
   -4.1080   -1.0697   -2.1246 H   0  0  0  0  0  0
    1.8482    1.0692    2.4312 H   0  0  0  0  0  0
    0.4478    0.0287    2.4683 H   0  0  0  0  0  0
    1.7558   -1.6841    3.7536 H   0  0  0  0  0  0
    3.1204   -0.5904    3.7901 H   0  0  0  0  0  0
    1.7216    1.1073    5.0117 H   0  0  0  0  0  0
    0.3510   -0.0006    4.9658 H   0  0  0  0  0  0
    1.6905   -1.5926    6.1715 H   0  0  0  0  0  0
    1.7815   -0.5165    8.2839 H   0  0  0  0  0  0
    0.3040   -0.0772    7.4297 H   0  0  0  0  0  0
    1.6722    1.0477    7.4812 H   0  0  0  0  0  0
    2.9473   -0.5669    6.2208 H   0  0  0  0  0  0
  1  2  2  0  0  0
  1  6  1  0  0  0
  1 33  1  0  0  0
  2  3  1  0  0  0
  2 34  1  0  0  0
  3  4  2  0  0  0
  3 35  1  0  0  0
  4  5  1  0  0  0
  4  7  1  0  0  0
  5  6  2  0  0  0
  5 36  1  0  0  0
  6 37  1  0  0  0
  7  8  1  0  0  0
  7 38  1  0  0  0
  7 39  1  0  0  0
  8  9  1  0  0  0
  9 10  1  0  0  0
  9 11  2  0  0  0
 10 12  1  0  0  0
 10 40  1  0  0  0
 12 13  1  0  0  0
 12 20  1  0  0  0
 12 41  1  0  0  0
 13 14  2  0  0  0
 13 15  1  0  0  0
 15 16  1  0  0  0
 15 42  1  0  0  0
 16 17  1  0  0  0
 16 21  1  0  0  0
 16 43  1  0  0  0
 17 18  1  0  0  0
 17 19  2  0  0  0
 18 44  1  0  0  0
 18 45  1  0  0  0
 20 22  1  0  0  0
 20 46  1  0  0  0
 20 47  1  0  0  0
 21 28  1  0  0  0
 21 48  1  0  0  0
 21 49  1  0  0  0
 22 23  2  0  0  0
 22 27  1  0  0  0
 23 24  1  0  0  0
 23 50  1  0  0  0
 24 25  2  0  0  0
 24 51  1  0  0  0
 25 26  1  0  0  0
 25 52  1  0  0  0
 26 27  2  0  0  0
 26 53  1  0  0  0
 27 54  1  0  0  0
 28 29  1  0  0  0
 28 55  1  0  0  0
 28 56  1  0  0  0
 29 30  1  0  0  0
 29 57  1  0  0  0
 29 58  1  0  0  0
 30 31  1  0  0  0
 30 59  1  0  0  0
 30 60  1  0  0  0
 31 32  1  0  0  0
 31 61  1  0  0  0
 31 65  1  0  0  0
 32 62  1  0  0  0
 32 63  1  0  0  0
 32 64  1  0  0  0
M  CHG  1  31   1
M  END
> <chembl_id>
CHEMBL2381989

> <chembl_pref_name>
None

> <i_m_ct_stereo_status>
1

> <s_m_source_file>
sdf/inactives_sanitized.sdf

> <i_m_source_file_index>
417

> <i_lp_mmshare_version>
49012

> <i_f3d_flags>
0

> <s_epik_input>
W2NIXTFbY0hdW2NIXVtjSF1bY0hdYzFbQ0gyXU9DKD1PKVtOSF1bQ0BASF0oW0NIMl1jMltjSF1bY0hdW2NIXVtjSF1bY0hdMilDKD1PKVtOSF1bQ0BIXShDKD1PKVtOSDJdKVtDSDJdW0NIMl1bQ0gyXVtDSDJdW05IXVtDSDNd

> <s_epik_cmdline>
J2VwaWtfcHl0aG9uJywgJy1waHQnLCAnMC41JywgJy1waCcsICc3LjUnLCAnLW50JywgJy1tYScsICcyMDAnLCAnLWltYWUnLCAnPGluZmlsZS5tYWU+JywgJy1vbWFlJywgJzxvdXRmaWxlLm1hZT4n

> <r_lp_tautomer_probability>
1

> <r_epik_Ionization_Penalty>
  0.0008

> <r_epik_Ionization_Penalty_Charging>
  0.0008

> <r_epik_Ionization_Penalty_Neutral>
  0.0000

> <r_epik_State_Penalty>
 -0.0000

> <r_epik_Charging_Adjusted_Penalty>
0.00075665392674401

> <i_epik_Tot_Q>
1

> <i_epik_Tot_abs_Q>
1

> <s_epik_Chemistry_Notes>
This compound has an ester and may undergo hydrolysis at high or low pH.

> <s_lp_Force_Field>
OPLS3e

> <r_lp_Energy>
35.190304

> <b_lp_Chiralities_Consistent>
1

> <s_lp_Variant>
sdf/inactives_sanitized.sdf:417-1

$$$$
sdf/inactives_sanitized.sdf:418
                    3D
 Schrodinger Suite 2020-1.
 64 65  0  0  1  0            999 V2000
   -0.5731   -0.3905   -2.6799 C   0  0  0  0  0  0
   -0.5226   -0.8049   -1.3979 N   0  0  0  0  0  0
   -0.1637    0.7175   -3.0362 O   0  0  0  0  0  0
    0.0303   -0.0513   -0.2658 C   0  0  2  0  0  0
    1.5573    0.1369   -0.3883 C   0  0  0  0  0  0
    2.2839   -0.8471   -0.5391 O   0  0  0  0  0  0
    2.0069    1.3992   -0.2970 N   0  0  0  0  0  0
    3.4113    1.7977   -0.4121 C   0  0  2  0  0  0
    3.6229    3.1351    0.3284 C   0  0  0  0  0  0
    4.7192    3.2360    1.0856 N   0  0  0  0  0  0
    2.8255    4.0618    0.1864 O   0  0  0  0  0  0
   -0.3457   -0.7448    1.0673 C   0  0  0  0  0  0
    3.7948    1.8802   -1.9146 C   0  0  0  0  0  0
   -1.8371   -0.8277    1.3504 C   0  0  0  0  0  0
   -2.5174    0.2876    1.8834 C   0  0  0  0  0  0
   -3.8953    0.2465    2.0503 C   0  0  0  0  0  0
   -4.6132   -0.8798    1.6682 C   0  0  0  0  0  0
   -3.9621   -1.9701    1.1043 C   0  0  0  0  0  0
   -2.5846   -1.9485    0.9289 C   0  0  0  0  0  0
    5.3051    2.0226   -2.1794 C   0  0  0  0  0  0
    5.6358    2.0518   -3.6786 C   0  0  0  0  0  0
    7.1381    2.2105   -3.9491 C   0  0  0  0  0  0
    7.4210    2.2412   -5.3942 N   0  3  0  0  0  0
   -1.1714   -1.3567   -3.6837 C   0  0  0  0  0  0
   -1.3361   -0.9558   -5.0179 C   0  0  0  0  0  0
   -1.8708   -1.8282   -5.9615 C   0  0  0  0  0  0
   -2.2404   -3.1203   -5.5865 C   0  0  0  0  0  0
   -2.0976   -3.5284   -4.2599 C   0  0  0  0  0  0
   -1.5637   -2.6554   -3.3160 C   0  0  0  0  0  0
   -2.7775   -3.9801   -6.5175 O   0  0  0  0  0  0
   -1.9494   -4.7907   -7.2298 C   0  0  0  0  0  0
   -2.7138   -5.6646   -8.2166 C   0  0  0  0  0  0
   -0.7216   -4.8605   -7.1374 O   0  0  0  0  0  0
   -0.8792   -1.7215   -1.1717 H   0  0  0  0  0  0
   -0.4444    0.9331   -0.2644 H   0  0  0  0  0  0
    1.3486    2.1530   -0.1595 H   0  0  0  0  0  0
    4.0196    1.0285    0.0702 H   0  0  0  0  0  0
    5.3548    2.4571    1.1739 H   0  0  0  0  0  0
    4.9118    4.0933    1.5832 H   0  0  0  0  0  0
    0.0629   -1.7571    1.0950 H   0  0  0  0  0  0
    0.1177   -0.2163    1.9028 H   0  0  0  0  0  0
    3.4546    0.9788   -2.4276 H   0  0  0  0  0  0
    3.2618    2.7046   -2.3928 H   0  0  0  0  0  0
   -1.9692    1.1752    2.1641 H   0  0  0  0  0  0
   -4.4118    1.0967    2.4709 H   0  0  0  0  0  0
   -5.6852   -0.9025    1.7986 H   0  0  0  0  0  0
   -4.5307   -2.8343    0.7940 H   0  0  0  0  0  0
   -2.0891   -2.7927    0.4721 H   0  0  0  0  0  0
    5.6783    2.9346   -1.7125 H   0  0  0  0  0  0
    5.8348    1.1951   -1.7056 H   0  0  0  0  0  0
    5.2765    1.1329   -4.1448 H   0  0  0  0  0  0
    5.0899    2.8689   -4.1527 H   0  0  0  0  0  0
    7.5088    3.1330   -3.5003 H   0  0  0  0  0  0
    7.6936    1.3865   -3.4996 H   0  0  0  0  0  0
    8.4146    2.3474   -5.5424 H   0  0  0  0  0  0
    6.9344    3.0186   -5.8177 H   0  0  0  0  0  0
   -1.0508    0.0358   -5.3397 H   0  0  0  0  0  0
   -1.9911   -1.5033   -6.9848 H   0  0  0  0  0  0
   -2.3933   -4.5242   -3.9628 H   0  0  0  0  0  0
   -1.4585   -3.0103   -2.3010 H   0  0  0  0  0  0
   -3.2838   -5.0455   -8.9094 H   0  0  0  0  0  0
   -3.4041   -6.3202   -7.6857 H   0  0  0  0  0  0
   -2.0276   -6.2842   -8.7948 H   0  0  0  0  0  0
    7.1092    1.3793   -5.8188 H   0  0  0  0  0  0
  1  2  1  0  0  0
  1  3  2  0  0  0
  1 24  1  0  0  0
  2  4  1  0  0  0
  2 34  1  0  0  0
  4  5  1  0  0  0
  4 12  1  0  0  0
  4 35  1  0  0  0
  5  6  2  0  0  0
  5  7  1  0  0  0
  7  8  1  0  0  0
  7 36  1  0  0  0
  8  9  1  0  0  0
  8 13  1  0  0  0
  8 37  1  0  0  0
  9 10  1  0  0  0
  9 11  2  0  0  0
 10 38  1  0  0  0
 10 39  1  0  0  0
 12 14  1  0  0  0
 12 40  1  0  0  0
 12 41  1  0  0  0
 13 20  1  0  0  0
 13 42  1  0  0  0
 13 43  1  0  0  0
 14 15  2  0  0  0
 14 19  1  0  0  0
 15 16  1  0  0  0
 15 44  1  0  0  0
 16 17  2  0  0  0
 16 45  1  0  0  0
 17 18  1  0  0  0
 17 46  1  0  0  0
 18 19  2  0  0  0
 18 47  1  0  0  0
 19 48  1  0  0  0
 20 21  1  0  0  0
 20 49  1  0  0  0
 20 50  1  0  0  0
 21 22  1  0  0  0
 21 51  1  0  0  0
 21 52  1  0  0  0
 22 23  1  0  0  0
 22 53  1  0  0  0
 22 54  1  0  0  0
 23 55  1  0  0  0
 23 56  1  0  0  0
 23 64  1  0  0  0
 24 25  2  0  0  0
 24 29  1  0  0  0
 25 26  1  0  0  0
 25 57  1  0  0  0
 26 27  2  0  0  0
 26 58  1  0  0  0
 27 28  1  0  0  0
 27 30  1  0  0  0
 28 29  2  0  0  0
 28 59  1  0  0  0
 29 60  1  0  0  0
 30 31  1  0  0  0
 31 32  1  0  0  0
 31 33  2  0  0  0
 32 61  1  0  0  0
 32 62  1  0  0  0
 32 63  1  0  0  0
M  CHG  1  23   1
M  END
> <chembl_id>
CHEMBL2382070

> <chembl_pref_name>
None

> <i_m_ct_stereo_status>
1

> <s_m_source_file>
sdf/inactives_sanitized.sdf

> <i_m_source_file_index>
418

> <i_lp_mmshare_version>
49012

> <i_f3d_flags>
0

> <s_epik_input>
W0NIM11DKD1PKU9jKFtjSF1bY0hdMSlbY0hdW2NIXWMxQyg9TylbTkhdW0NAQEhdKFtDSDJdYzJbY0hdW2NIXVtjSF1bY0hdW2NIXTIpQyg9TylbTkhdW0NASF0oQyg9TylbTkgyXSlbQ0gyXVtDSDJdW0NIMl1bQ0gyXVtOSDJd

> <s_epik_cmdline>
J2VwaWtfcHl0aG9uJywgJy1waHQnLCAnMC41JywgJy1waCcsICc3LjUnLCAnLW50JywgJy1tYScsICcyMDAnLCAnLWltYWUnLCAnPGluZmlsZS5tYWU+JywgJy1vbWFlJywgJzxvdXRmaWxlLm1hZT4n

> <r_lp_tautomer_probability>
1

> <r_epik_Ionization_Penalty>
  0.0014

> <r_epik_Ionization_Penalty_Charging>
  0.0014

> <r_epik_Ionization_Penalty_Neutral>
  0.0000

> <r_epik_State_Penalty>
 -0.0000

> <r_epik_Charging_Adjusted_Penalty>
0.00140340395202934

> <i_epik_Tot_Q>
1

> <i_epik_Tot_abs_Q>
1

> <s_lp_Force_Field>
OPLS3e

> <r_lp_Energy>
31.37949

> <b_lp_Chiralities_Consistent>
1

> <s_lp_Variant>
sdf/inactives_sanitized.sdf:418-1

$$$$
sdf/inactives_sanitized.sdf:419
                    3D
 Schrodinger Suite 2020-1.
 75 77  0  0  1  0            999 V2000
   -2.8024   -3.7865   -7.1150 C   0  0  0  0  0  0
   -2.3510   -2.5995   -7.6875 C   0  0  0  0  0  0
   -1.9487   -1.5480   -6.8680 C   0  0  0  0  0  0
   -1.9940   -1.6845   -5.4781 C   0  0  0  0  0  0
   -2.4572   -2.8783   -4.9110 C   0  0  0  0  0  0
   -2.8584   -3.9301   -5.7307 C   0  0  0  0  0  0
   -1.5555   -0.5090   -4.6117 C   0  0  0  0  0  0
   -1.0447   -0.9457   -3.3548 O   0  0  0  0  0  0
   -0.6401   -0.0564   -2.4274 C   0  0  0  0  0  0
   -0.2190   -0.7489   -1.2973 N   0  0  0  0  0  0
   -0.6484    1.1688   -2.5747 O   0  0  0  0  0  0
    0.2659   -0.0413   -0.1019 C   0  0  2  0  0  0
    1.7742    0.2862   -0.2072 C   0  0  0  0  0  0
    2.5665   -0.5763   -0.5913 O   0  0  0  0  0  0
    2.1334    1.5205    0.1817 N   0  0  0  0  0  0
    3.5056    2.0301    0.2073 C   0  0  2  0  0  0
    3.6292    3.1055    1.3078 C   0  0  0  0  0  0
    4.7488    3.0909    2.0369 N   0  0  0  0  0  0
    2.7426    3.9445    1.4686 O   0  0  0  0  0  0
   -0.0825   -0.8467    1.1814 C   0  0  0  0  0  0
    3.8728    2.5668   -1.2017 C   0  0  0  0  0  0
    0.2626   -0.1414    2.4967 C   0  0  0  0  0  0
    0.9865   -0.8255    3.4753 C   0  0  0  0  0  0
    1.3132   -0.1950    4.6727 C   0  0  0  0  0  0
    0.9258    1.1282    4.9106 C   0  0  0  0  0  0
    0.1863    1.8018    3.9324 C   0  0  0  0  0  0
   -0.1475    1.1732    2.7366 C   0  0  0  0  0  0
    5.3677    2.8836   -1.3935 C   0  0  0  0  0  0
    5.6911    3.3417   -2.8231 C   0  0  0  0  0  0
    7.1805    3.6561   -3.0200 C   0  0  0  0  0  0
    7.4553    4.1011   -4.3971 N   0  3  0  0  0  0
    1.2767    1.7955    6.1979 C   0  0  0  0  0  0
    0.9391    1.1587    7.4011 C   0  0  0  0  0  0
    1.2277    1.7419    8.6332 C   0  0  0  0  0  0
    1.8704    2.9747    8.6835 C   0  0  0  0  0  0
    2.2294    3.6175    7.5016 C   0  0  0  0  0  0
    1.9426    3.0400    6.2594 C   0  0  0  0  0  0
    2.4230    3.7630    5.0069 C   0  0  0  0  0  0
   -3.1142   -4.6022   -7.7505 H   0  0  0  0  0  0
   -2.3138   -2.4951   -8.7619 H   0  0  0  0  0  0
   -1.6009   -0.6281   -7.3157 H   0  0  0  0  0  0
   -2.5108   -2.9964   -3.8386 H   0  0  0  0  0  0
   -3.2128   -4.8527   -5.2950 H   0  0  0  0  0  0
   -0.7790    0.0531   -5.1339 H   0  0  0  0  0  0
   -2.4077    0.1567   -4.4640 H   0  0  0  0  0  0
   -0.2115   -1.7584   -1.3036 H   0  0  0  0  0  0
   -0.2904    0.8954   -0.0175 H   0  0  0  0  0  0
    1.4245    2.1638    0.5041 H   0  0  0  0  0  0
    4.1699    1.1993    0.4575 H   0  0  0  0  0  0
    5.4569    2.3903    1.8738 H   0  0  0  0  0  0
    4.8873    3.7777    2.7640 H   0  0  0  0  0  0
   -1.1497   -1.0726    1.2037 H   0  0  0  0  0  0
    0.4190   -1.8162    1.1407 H   0  0  0  0  0  0
    3.5937    1.8261   -1.9532 H   0  0  0  0  0  0
    3.2795    3.4538   -1.4322 H   0  0  0  0  0  0
    1.3043   -1.8448    3.3108 H   0  0  0  0  0  0
    1.8798   -0.7377    5.4156 H   0  0  0  0  0  0
   -0.1449    2.8158    4.1018 H   0  0  0  0  0  0
   -0.7272    1.7152    2.0047 H   0  0  0  0  0  0
    5.6736    3.6601   -0.6917 H   0  0  0  0  0  0
    5.9588    1.9995   -1.1512 H   0  0  0  0  0  0
    5.3854    2.5672   -3.5281 H   0  0  0  0  0  0
    5.0966    4.2248   -3.0616 H   0  0  0  0  0  0
    7.4973    4.4383   -2.3291 H   0  0  0  0  0  0
    7.7859    2.7738   -2.8093 H   0  0  0  0  0  0
    8.4399    4.3035   -4.4978 H   0  0  0  0  0  0
    6.9199    4.9343   -4.5962 H   0  0  0  0  0  0
    0.4328    0.2041    7.3845 H   0  0  0  0  0  0
    0.9507    1.2384    9.5477 H   0  0  0  0  0  0
    2.0969    3.4286    9.6369 H   0  0  0  0  0  0
    2.7418    4.5671    7.5559 H   0  0  0  0  0  0
    3.2597    4.4283    5.2237 H   0  0  0  0  0  0
    1.6186    4.3467    4.5595 H   0  0  0  0  0  0
    2.7878    3.0504    4.2675 H   0  0  0  0  0  0
    7.1951    3.3722   -5.0463 H   0  0  0  0  0  0
  1  2  2  0  0  0
  1  6  1  0  0  0
  1 39  1  0  0  0
  2  3  1  0  0  0
  2 40  1  0  0  0
  3  4  2  0  0  0
  3 41  1  0  0  0
  4  5  1  0  0  0
  4  7  1  0  0  0
  5  6  2  0  0  0
  5 42  1  0  0  0
  6 43  1  0  0  0
  7  8  1  0  0  0
  7 44  1  0  0  0
  7 45  1  0  0  0
  8  9  1  0  0  0
  9 10  1  0  0  0
  9 11  2  0  0  0
 10 12  1  0  0  0
 10 46  1  0  0  0
 12 13  1  0  0  0
 12 20  1  0  0  0
 12 47  1  0  0  0
 13 14  2  0  0  0
 13 15  1  0  0  0
 15 16  1  0  0  0
 15 48  1  0  0  0
 16 17  1  0  0  0
 16 21  1  0  0  0
 16 49  1  0  0  0
 17 18  1  0  0  0
 17 19  2  0  0  0
 18 50  1  0  0  0
 18 51  1  0  0  0
 20 22  1  0  0  0
 20 52  1  0  0  0
 20 53  1  0  0  0
 21 28  1  0  0  0
 21 54  1  0  0  0
 21 55  1  0  0  0
 22 23  2  0  0  0
 22 27  1  0  0  0
 23 24  1  0  0  0
 23 56  1  0  0  0
 24 25  2  0  0  0
 24 57  1  0  0  0
 25 26  1  0  0  0
 25 32  1  0  0  0
 26 27  2  0  0  0
 26 58  1  0  0  0
 27 59  1  0  0  0
 28 29  1  0  0  0
 28 60  1  0  0  0
 28 61  1  0  0  0
 29 30  1  0  0  0
 29 62  1  0  0  0
 29 63  1  0  0  0
 30 31  1  0  0  0
 30 64  1  0  0  0
 30 65  1  0  0  0
 31 66  1  0  0  0
 31 67  1  0  0  0
 31 75  1  0  0  0
 32 33  2  0  0  0
 32 37  1  0  0  0
 33 34  1  0  0  0
 33 68  1  0  0  0
 34 35  2  0  0  0
 34 69  1  0  0  0
 35 36  1  0  0  0
 35 70  1  0  0  0
 36 37  2  0  0  0
 36 71  1  0  0  0
 37 38  1  0  0  0
 38 72  1  0  0  0
 38 73  1  0  0  0
 38 74  1  0  0  0
M  CHG  1  31   1
M  END
> <chembl_id>
CHEMBL2382002

> <chembl_pref_name>
None

> <i_m_ct_stereo_status>
1

> <s_m_source_file>
sdf/inactives_sanitized.sdf

> <i_m_source_file_index>
419

> <i_lp_mmshare_version>
49012

> <i_f3d_flags>
0

> <s_epik_input>
W2NIXTFbY0hdW2NIXVtjSF1bY0hdYzFbQ0gyXU9DKD1PKVtOSF1bQ0BIXShDKD1PKVtOSF1bQ0BIXShDKD1PKVtOSDJdKVtDSDJdW0NIMl1bQ0gyXVtDSDJdW05IMl0pW0NIMl1jMltjSF1bY0hdYyhbY0hdW2NIXTIpLWMzW2NIXVtjSF1bY0hdW2NIXWMzW0NIM10=

> <s_epik_cmdline>
J2VwaWtfcHl0aG9uJywgJy1waHQnLCAnMC41JywgJy1waCcsICc3LjUnLCAnLW50JywgJy1tYScsICcyMDAnLCAnLWltYWUnLCAnPGluZmlsZS5tYWU+JywgJy1vbWFlJywgJzxvdXRmaWxlLm1hZT4n

> <r_lp_tautomer_probability>
1

> <r_epik_Ionization_Penalty>
  0.0014

> <r_epik_Ionization_Penalty_Charging>
  0.0014

> <r_epik_Ionization_Penalty_Neutral>
  0.0000

> <r_epik_State_Penalty>
 -0.0000

> <r_epik_Charging_Adjusted_Penalty>
0.00140340395202934

> <i_epik_Tot_Q>
1

> <i_epik_Tot_abs_Q>
1

> <s_epik_Chemistry_Notes>
This compound has an ester and may undergo hydrolysis at high or low pH.

> <s_lp_Force_Field>
OPLS3e

> <r_lp_Energy>
44.504362

> <b_lp_Chiralities_Consistent>
1

> <s_lp_Variant>
sdf/inactives_sanitized.sdf:419-1

$$$$
sdf/inactives_sanitized.sdf:420
                    3D
 Schrodinger Suite 2020-1.
 59 60  0  0  1  0            999 V2000
   -6.3240    6.8576    4.1379 C   0  0  0  0  0  0
   -7.3382    5.9998    3.7169 C   0  0  0  0  0  0
   -7.0374    4.6764    3.4051 C   0  0  0  0  0  0
   -5.7227    4.2166    3.5142 C   0  0  0  0  0  0
   -4.7100    5.0805    3.9408 C   0  0  0  0  0  0
   -5.0113    6.4041    4.2515 C   0  0  0  0  0  0
   -5.3994    2.7697    3.1823 C   0  0  0  0  0  0
   -4.4396    2.7131    2.1327 O   0  0  0  0  0  0
   -3.9897    1.5293    1.6749 C   0  0  0  0  0  0
   -3.0556    1.7638    0.6736 N   0  0  0  0  0  0
   -4.3562    0.4283    2.0939 O   0  0  0  0  0  0
   -2.3939    0.6564   -0.0352 C   0  0  2  0  0  0
   -0.9026    1.0035   -0.2193 C   0  0  0  0  0  0
   -0.5804    2.0708   -0.7463 O   0  0  0  0  0  0
   -0.0221    0.0776    0.2002 N   0  0  0  0  0  0
    1.4359    0.1920    0.0919 C   0  0  2  0  0  0
    1.9060    0.0045   -1.3699 C   0  0  0  0  0  0
    2.8312    0.8578   -1.8174 N   0  0  0  0  0  0
    1.4579   -0.9134   -2.0561 O   0  0  0  0  0  0
   -3.0739    0.4274   -1.4110 C   0  0  0  0  0  0
    2.0727   -0.8484    1.0489 C   0  0  0  0  0  0
    3.5793   -0.6447    1.2983 C   0  0  0  0  0  0
    4.1492   -1.6470    2.3129 C   0  0  0  0  0  0
    5.6424   -1.4213    2.5895 C   0  0  0  0  0  0
    6.1630   -2.4003    3.5592 N   0  3  0  0  0  0
   -4.4975   -0.0765   -1.3543 C   0  0  0  0  0  0
   -5.5392    0.5437   -2.0224 N   0  0  0  0  0  0
   -6.6478   -0.1533   -1.7584 C   0  0  0  0  0  0
   -6.4346   -1.1996   -0.9695 N   0  0  0  0  0  0
   -5.0625   -1.1572   -0.7118 C   0  0  0  0  0  0
   -6.5580    7.8841    4.3794 H   0  0  0  0  0  0
   -8.3532    6.3593    3.6331 H   0  0  0  0  0  0
   -7.8254    4.0127    3.0798 H   0  0  0  0  0  0
   -3.6924    4.7279    4.0303 H   0  0  0  0  0  0
   -4.2318    7.0758    4.5798 H   0  0  0  0  0  0
   -5.0169    2.2767    4.0774 H   0  0  0  0  0  0
   -6.3075    2.2432    2.8832 H   0  0  0  0  0  0
   -2.8258    2.7125    0.4149 H   0  0  0  0  0  0
   -2.4515   -0.2689    0.5455 H   0  0  0  0  0  0
   -0.3664   -0.7803    0.6062 H   0  0  0  0  0  0
    1.7076    1.1920    0.4389 H   0  0  0  0  0  0
    3.1743    1.5991   -1.2245 H   0  0  0  0  0  0
    3.1800    0.7749   -2.7612 H   0  0  0  0  0  0
   -3.0556    1.3455   -2.0019 H   0  0  0  0  0  0
   -2.5088   -0.3082   -1.9866 H   0  0  0  0  0  0
    1.5683   -0.7975    2.0158 H   0  0  0  0  0  0
    1.8971   -1.8609    0.6794 H   0  0  0  0  0  0
    4.1252   -0.7374    0.3588 H   0  0  0  0  0  0
    3.7517    0.3717    1.6548 H   0  0  0  0  0  0
    3.5905   -1.5744    3.2471 H   0  0  0  0  0  0
    3.9953   -2.6614    1.9423 H   0  0  0  0  0  0
    6.2167   -1.5039    1.6661 H   0  0  0  0  0  0
    5.8066   -0.4176    2.9835 H   0  0  0  0  0  0
    7.1429   -2.2206    3.7272 H   0  0  0  0  0  0
    6.0527   -3.3344    3.1908 H   0  0  0  0  0  0
   -7.6210    0.1073   -2.1479 H   0  0  0  0  0  0
   -4.5918   -1.8982   -0.0828 H   0  0  0  0  0  0
    5.6546   -2.3202    4.4284 H   0  0  0  0  0  0
   -5.4756    1.3718   -2.5969 H   0  0  0  0  0  0
  1  2  2  0  0  0
  1  6  1  0  0  0
  1 31  1  0  0  0
  2  3  1  0  0  0
  2 32  1  0  0  0
  3  4  2  0  0  0
  3 33  1  0  0  0
  4  5  1  0  0  0
  4  7  1  0  0  0
  5  6  2  0  0  0
  5 34  1  0  0  0
  6 35  1  0  0  0
  7  8  1  0  0  0
  7 36  1  0  0  0
  7 37  1  0  0  0
  8  9  1  0  0  0
  9 10  1  0  0  0
  9 11  2  0  0  0
 10 12  1  0  0  0
 10 38  1  0  0  0
 12 13  1  0  0  0
 12 20  1  0  0  0
 12 39  1  0  0  0
 13 14  2  0  0  0
 13 15  1  0  0  0
 15 16  1  0  0  0
 15 40  1  0  0  0
 16 17  1  0  0  0
 16 21  1  0  0  0
 16 41  1  0  0  0
 17 18  1  0  0  0
 17 19  2  0  0  0
 18 42  1  0  0  0
 18 43  1  0  0  0
 20 26  1  0  0  0
 20 44  1  0  0  0
 20 45  1  0  0  0
 21 22  1  0  0  0
 21 46  1  0  0  0
 21 47  1  0  0  0
 22 23  1  0  0  0
 22 48  1  0  0  0
 22 49  1  0  0  0
 23 24  1  0  0  0
 23 50  1  0  0  0
 23 51  1  0  0  0
 24 25  1  0  0  0
 24 52  1  0  0  0
 24 53  1  0  0  0
 25 54  1  0  0  0
 25 55  1  0  0  0
 25 58  1  0  0  0
 26 27  1  0  0  0
 26 30  2  0  0  0
 27 28  1  0  0  0
 27 59  1  0  0  0
 28 29  2  0  0  0
 28 56  1  0  0  0
 29 30  1  0  0  0
 30 57  1  0  0  0
M  CHG  1  25   1
M  END
> <chembl_id>
CHEMBL2382060

> <chembl_pref_name>
None

> <i_m_ct_stereo_status>
1

> <s_m_source_file>
sdf/inactives_sanitized.sdf

> <i_m_source_file_index>
420

> <i_lp_mmshare_version>
49012

> <i_f3d_flags>
0

> <s_epik_input>
W2NIXTFbY0hdW2NIXVtjSF1bY0hdYzFbQ0gyXU9DKD1PKVtOSF1bQ0BASF0oW0NIMl1jMm5bY0hdW25IXVtjSF0yKUMoPU8pW05IXVtDQEhdKEMoPU8pW05IMl0pW0NIMl1bQ0gyXVtDSDJdW0NIMl1bTkgyXQ==

> <s_epik_cmdline>
J2VwaWtfcHl0aG9uJywgJy1waHQnLCAnMC41JywgJy1waCcsICc3LjUnLCAnLW50JywgJy1tYScsICcyMDAnLCAnLWltYWUnLCAnPGluZmlsZS5tYWU+JywgJy1vbWFlJywgJzxvdXRmaWxlLm1hZT4n

> <r_lp_tautomer_probability>
0.499999999999999

> <r_epik_Ionization_Penalty>
  0.1245

> <r_epik_Ionization_Penalty_Charging>
  0.1245

> <r_epik_Ionization_Penalty_Neutral>
  0.0000

> <r_epik_State_Penalty>
  0.4090

> <r_epik_Charging_Adjusted_Penalty>
0.533546744887028

> <i_epik_Tot_Q>
1

> <i_epik_Tot_abs_Q>
1

> <s_epik_Chemistry_Notes>
This compound has an ester and may undergo hydrolysis at high or low pH.

> <s_lp_Force_Field>
OPLS3e

> <r_lp_Energy>
23.057833

> <b_lp_Chiralities_Consistent>
1

> <s_lp_Variant>
sdf/inactives_sanitized.sdf:420-1

$$$$
sdf/inactives_sanitized.sdf:420
                    3D
 Schrodinger Suite 2020-1.
 59 60  0  0  1  0            999 V2000
   -5.4021   -0.4769    8.1404 C   0  0  0  0  0  0
   -4.9818   -1.7871    7.9255 C   0  0  0  0  0  0
   -4.2906   -2.1072    6.7598 C   0  0  0  0  0  0
   -4.0200   -1.1201    5.8084 C   0  0  0  0  0  0
   -4.4444    0.1963    6.0353 C   0  0  0  0  0  0
   -5.1359    0.5159    7.2008 C   0  0  0  0  0  0
   -3.2531   -1.5228    4.5512 C   0  0  0  0  0  0
   -3.2449   -0.4908    3.5682 O   0  0  0  0  0  0
   -2.6181   -0.6624    2.3893 C   0  0  0  0  0  0
   -2.7667    0.4957    1.6333 N   0  0  0  0  0  0
   -2.0152   -1.6856    2.0533 O   0  0  0  0  0  0
   -2.1860    0.6192    0.2842 C   0  0  2  0  0  0
   -0.6456    0.7459    0.3185 C   0  0  0  0  0  0
   -0.1178    1.5807    1.0559 O   0  0  0  0  0  0
    0.0315   -0.0899   -0.4860 N   0  0  0  0  0  0
    1.4928   -0.1844   -0.5704 C   0  0  2  0  0  0
    1.9393   -0.2106   -2.0473 C   0  0  0  0  0  0
    3.0804    0.4200   -2.3395 N   0  0  0  0  0  0
    1.2817   -0.8182   -2.8922 O   0  0  0  0  0  0
   -2.8201    1.8406   -0.4257 C   0  0  0  0  0  0
    1.9702   -1.4556    0.1801 C   0  0  0  0  0  0
    1.7806   -1.3916    1.7079 C   0  0  0  0  0  0
    2.2388   -2.6715    2.4201 C   0  0  0  0  0  0
    1.9796   -2.6204    3.9322 C   0  0  0  0  0  0
    2.3998   -3.8689    4.5911 N   0  3  0  0  0  0
   -4.3120    1.7448   -0.6430 C   0  0  0  0  0  0
   -4.8761    0.9212   -1.6235 N   0  0  0  0  0  0
   -6.1854    1.0968   -1.5029 C   0  0  0  0  0  0
   -6.5099    1.9557   -0.5356 N   0  0  0  0  0  0
   -5.3267    2.3899    0.0347 C   0  0  0  0  0  0
   -5.9385   -0.2281    9.0444 H   0  0  0  0  0  0
   -5.1907   -2.5513    8.6597 H   0  0  0  0  0  0
   -3.9660   -3.1249    6.5976 H   0  0  0  0  0  0
   -4.2433    0.9787    5.3187 H   0  0  0  0  0  0
   -5.4637    1.5300    7.3761 H   0  0  0  0  0  0
   -2.2288   -1.7747    4.8314 H   0  0  0  0  0  0
   -3.7144   -2.4178    4.1294 H   0  0  0  0  0  0
   -3.2795    1.2773    2.0140 H   0  0  0  0  0  0
   -2.4610   -0.2706   -0.2892 H   0  0  0  0  0  0
   -0.4800   -0.7320   -1.0744 H   0  0  0  0  0  0
    1.9477    0.6913   -0.1015 H   0  0  0  0  0  0
    3.5990    0.9013   -1.6195 H   0  0  0  0  0  0
    3.4262    0.4240   -3.2879 H   0  0  0  0  0  0
   -2.6176    2.7561    0.1335 H   0  0  0  0  0  0
   -2.3635    1.9833   -1.4069 H   0  0  0  0  0  0
    1.4513   -2.3337   -0.2102 H   0  0  0  0  0  0
    3.0301   -1.6246   -0.0193 H   0  0  0  0  0  0
    2.3255   -0.5347    2.1060 H   0  0  0  0  0  0
    0.7305   -1.2195    1.9427 H   0  0  0  0  0  0
    1.7214   -3.5300    1.9890 H   0  0  0  0  0  0
    3.3024   -2.8281    2.2343 H   0  0  0  0  0  0
    2.5181   -1.7851    4.3818 H   0  0  0  0  0  0
    0.9180   -2.4625    4.1281 H   0  0  0  0  0  0
    2.2146   -3.8079    5.5825 H   0  0  0  0  0  0
    3.3885   -4.0140    4.4430 H   0  0  0  0  0  0
   -6.9129    0.5948   -2.1238 H   0  0  0  0  0  0
   -7.4434    2.2350   -0.2697 H   0  0  0  0  0  0
   -5.3033    3.0961    0.8517 H   0  0  0  0  0  0
    1.8845   -4.6455    4.2014 H   0  0  0  0  0  0
  1  2  2  0  0  0
  1  6  1  0  0  0
  1 31  1  0  0  0
  2  3  1  0  0  0
  2 32  1  0  0  0
  3  4  2  0  0  0
  3 33  1  0  0  0
  4  5  1  0  0  0
  4  7  1  0  0  0
  5  6  2  0  0  0
  5 34  1  0  0  0
  6 35  1  0  0  0
  7  8  1  0  0  0
  7 36  1  0  0  0
  7 37  1  0  0  0
  8  9  1  0  0  0
  9 10  1  0  0  0
  9 11  2  0  0  0
 10 12  1  0  0  0
 10 38  1  0  0  0
 12 13  1  0  0  0
 12 20  1  0  0  0
 12 39  1  0  0  0
 13 14  2  0  0  0
 13 15  1  0  0  0
 15 16  1  0  0  0
 15 40  1  0  0  0
 16 17  1  0  0  0
 16 21  1  0  0  0
 16 41  1  0  0  0
 17 18  1  0  0  0
 17 19  2  0  0  0
 18 42  1  0  0  0
 18 43  1  0  0  0
 20 26  1  0  0  0
 20 44  1  0  0  0
 20 45  1  0  0  0
 21 22  1  0  0  0
 21 46  1  0  0  0
 21 47  1  0  0  0
 22 23  1  0  0  0
 22 48  1  0  0  0
 22 49  1  0  0  0
 23 24  1  0  0  0
 23 50  1  0  0  0
 23 51  1  0  0  0
 24 25  1  0  0  0
 24 52  1  0  0  0
 24 53  1  0  0  0
 25 54  1  0  0  0
 25 55  1  0  0  0
 25 59  1  0  0  0
 26 27  1  0  0  0
 26 30  2  0  0  0
 27 28  2  0  0  0
 28 29  1  0  0  0
 28 56  1  0  0  0
 29 30  1  0  0  0
 29 57  1  0  0  0
 30 58  1  0  0  0
M  CHG  1  25   1
M  END
> <chembl_id>
CHEMBL2382060

> <chembl_pref_name>
None

> <i_m_ct_stereo_status>
1

> <s_m_source_file>
sdf/inactives_sanitized.sdf

> <i_m_source_file_index>
420

> <i_lp_mmshare_version>
49012

> <i_f3d_flags>
0

> <s_epik_input>
W2NIXTFbY0hdW2NIXVtjSF1bY0hdYzFbQ0gyXU9DKD1PKVtOSF1bQ0BASF0oW0NIMl1jMm5bY0hdW25IXVtjSF0yKUMoPU8pW05IXVtDQEhdKEMoPU8pW05IMl0pW0NIMl1bQ0gyXVtDSDJdW0NIMl1bTkgyXQ==

> <s_epik_cmdline>
J2VwaWtfcHl0aG9uJywgJy1waHQnLCAnMC41JywgJy1waCcsICc3LjUnLCAnLW50JywgJy1tYScsICcyMDAnLCAnLWltYWUnLCAnPGluZmlsZS5tYWU+JywgJy1vbWFlJywgJzxvdXRmaWxlLm1hZT4n

> <r_lp_tautomer_probability>
0.499999999999999

> <r_epik_Ionization_Penalty>
  0.2984

> <r_epik_Ionization_Penalty_Charging>
  0.2984

> <r_epik_Ionization_Penalty_Neutral>
  0.0000

> <r_epik_State_Penalty>
  0.6273

> <r_epik_Charging_Adjusted_Penalty>
0.925753471277257

> <i_epik_Tot_Q>
1

> <i_epik_Tot_abs_Q>
1

> <s_epik_Chemistry_Notes>
This compound has an ester and may undergo hydrolysis at high or low pH.

> <s_lp_Force_Field>
OPLS3e

> <r_lp_Energy>
19.781457

> <b_lp_Chiralities_Consistent>
1

> <s_lp_Variant>
sdf/inactives_sanitized.sdf:420-2

$$$$
 
                    3D
 Schrodinger Suite 2020-1.
 72 75  0  0  1  0            999 V2000
    4.1945    4.8836    0.1556 C   0  0  0  0  0  0
   -1.5271   -0.6437   -3.0046 O   0  0  0  0  0  0
   -1.2086    0.2818   -2.0733 C   0  0  0  0  0  0
   -0.6549   -0.3663   -0.9770 N   0  0  0  0  0  0
   -1.4184    1.4919   -2.1847 O   0  0  0  0  0  0
   -0.2849    0.3632    0.2525 C   0  0  2  0  0  0
    1.1916    0.8278    0.3269 C   0  0  0  0  0  0
    1.9240    0.7670   -0.8015 N   0  0  0  0  0  0
    1.6319    1.2557    1.3946 O   0  0  0  0  0  0
    3.3133    1.2048   -0.9449 C   0  0  2  0  0  0
    3.4343    2.7220   -0.8995 C   0  0  0  0  0  0
    3.9421    0.6196   -2.2288 C   0  0  0  0  0  0
    4.0659    3.4148    0.0688 C   0  0  0  0  0  0
   -0.7867   -0.4158    1.4968 C   0  0  0  0  0  0
   -2.2890   -0.6600    1.5273 C   0  0  0  0  0  0
   -3.1640    0.3671    1.9403 C   0  0  0  0  0  0
   -4.5382    0.1874    1.8525 C   0  0  0  0  0  0
   -5.0584   -0.9917    1.3338 C   0  0  0  0  0  0
   -4.2099   -1.9975    0.8888 C   0  0  0  0  0  0
   -2.8330   -1.8369    0.9681 C   0  0  0  0  0  0
    3.6351    5.6503   -0.8232 N   0  0  0  0  0  0
    3.7487    7.0000   -0.7333 C   0  0  0  0  0  0
    4.4141    7.6346    0.3158 C   0  0  0  0  0  0
    4.9864    6.8443    1.3132 C   0  0  0  0  0  0
    4.8780    5.4540    1.2366 C   0  0  0  0  0  0
   -2.4030   -0.3401   -4.0906 C   0  0  0  0  0  0
   -3.8517   -0.2449   -3.6214 C   0  0  0  0  0  0
   -4.5905    0.9122   -3.8788 C   0  0  0  0  0  0
   -5.9074    1.0074   -3.4364 C   0  0  0  0  0  0
   -6.4809   -0.0551   -2.7405 C   0  0  0  0  0  0
   -5.7503   -1.2134   -2.4840 C   0  0  0  0  0  0
   -4.4337   -1.3092   -2.9261 C   0  0  0  0  0  0
    3.9446   -0.9229   -2.2911 C   0  0  0  0  0  0
    4.5644   -1.4572   -3.5736 C   0  0  0  0  0  0
    3.7581   -1.7032   -4.6887 C   0  0  0  0  0  0
    4.3270   -2.1900   -5.8629 C   0  0  0  0  0  0
    5.6987   -2.4286   -5.9181 C   0  0  0  0  0  0
    6.5077   -2.1838   -4.8104 C   0  0  0  0  0  0
    5.9398   -1.6969   -3.6359 C   0  0  0  0  0  0
   -0.5044   -1.3638   -1.0121 H   0  0  0  0  0  0
   -0.8500    1.2983    0.2816 H   0  0  0  0  0  0
    1.4720    0.4481   -1.6462 H   0  0  0  0  0  0
    3.8798    0.7874   -0.1082 H   0  0  0  0  0  0
    2.9604    3.2488   -1.7155 H   0  0  0  0  0  0
    3.4158    1.0136   -3.1004 H   0  0  0  0  0  0
    4.9704    0.9761   -2.3142 H   0  0  0  0  0  0
    4.5253    2.8545    0.8709 H   0  0  0  0  0  0
   -0.2814   -1.3812    1.5580 H   0  0  0  0  0  0
   -0.5209    0.1178    2.4108 H   0  0  0  0  0  0
   -2.7675    1.2978    2.3193 H   0  0  0  0  0  0
   -5.2052    0.9723    2.1776 H   0  0  0  0  0  0
   -6.1283   -1.1212    1.2630 H   0  0  0  0  0  0
   -4.6227   -2.9026    0.4683 H   0  0  0  0  0  0
   -2.1812   -2.6136    0.5959 H   0  0  0  0  0  0
    3.2918    7.5760   -1.5246 H   0  0  0  0  0  0
    4.4844    8.7117    0.3554 H   0  0  0  0  0  0
    5.5081    7.3041    2.1395 H   0  0  0  0  0  0
    5.3163    4.8362    2.0070 H   0  0  0  0  0  0
   -2.0935    0.5817   -4.5870 H   0  0  0  0  0  0
   -2.3310   -1.1352   -4.8332 H   0  0  0  0  0  0
   -4.1451    1.7398   -4.4120 H   0  0  0  0  0  0
   -6.4813    1.9016   -3.6295 H   0  0  0  0  0  0
   -7.5016    0.0202   -2.3959 H   0  0  0  0  0  0
   -6.2017   -2.0315   -1.9423 H   0  0  0  0  0  0
   -3.8652   -2.2049   -2.7217 H   0  0  0  0  0  0
    4.4840   -1.3325   -1.4353 H   0  0  0  0  0  0
    2.9296   -1.3141   -2.2036 H   0  0  0  0  0  0
    2.6945   -1.5173   -4.6474 H   0  0  0  0  0  0
    3.7080   -2.3816   -6.7270 H   0  0  0  0  0  0
    6.1395   -2.8064   -6.8289 H   0  0  0  0  0  0
    7.5702   -2.3707   -4.8626 H   0  0  0  0  0  0
    6.5678   -1.5053   -2.7779 H   0  0  0  0  0  0
  1 13  1  0  0  0
  1 21  2  0  0  0
  1 25  1  0  0  0
  2  3  1  0  0  0
  2 26  1  0  0  0
  3  4  1  0  0  0
  3  5  2  0  0  0
  4  6  1  0  0  0
  4 40  1  0  0  0
  6  7  1  0  0  0
  6 14  1  0  0  0
  6 41  1  0  0  0
  7  8  1  0  0  0
  7  9  2  0  0  0
  8 10  1  0  0  0
  8 42  1  0  0  0
 10 11  1  0  0  0
 10 12  1  0  0  0
 10 43  1  0  0  0
 11 13  2  0  0  0
 11 44  1  0  0  0
 12 33  1  0  0  0
 12 45  1  0  0  0
 12 46  1  0  0  0
 13 47  1  0  0  0
 14 15  1  0  0  0
 14 48  1  0  0  0
 14 49  1  0  0  0
 15 16  2  0  0  0
 15 20  1  0  0  0
 16 17  1  0  0  0
 16 50  1  0  0  0
 17 18  2  0  0  0
 17 51  1  0  0  0
 18 19  1  0  0  0
 18 52  1  0  0  0
 19 20  2  0  0  0
 19 53  1  0  0  0
 20 54  1  0  0  0
 21 22  1  0  0  0
 22 23  2  0  0  0
 22 55  1  0  0  0
 23 24  1  0  0  0
 23 56  1  0  0  0
 24 25  2  0  0  0
 24 57  1  0  0  0
 25 58  1  0  0  0
 26 27  1  0  0  0
 26 59  1  0  0  0
 26 60  1  0  0  0
 27 28  2  0  0  0
 27 32  1  0  0  0
 28 29  1  0  0  0
 28 61  1  0  0  0
 29 30  2  0  0  0
 29 62  1  0  0  0
 30 31  1  0  0  0
 30 63  1  0  0  0
 31 32  2  0  0  0
 31 64  1  0  0  0
 32 65  1  0  0  0
 33 34  1  0  0  0
 33 66  1  0  0  0
 33 67  1  0  0  0
 34 35  2  0  0  0
 34 39  1  0  0  0
 35 36  1  0  0  0
 35 68  1  0  0  0
 36 37  2  0  0  0
 36 69  1  0  0  0
 37 38  1  0  0  0
 37 70  1  0  0  0
 38 39  2  0  0  0
 38 71  1  0  0  0
 39 72  1  0  0  0
M  END
> <chembl_id>
CHEMBL4434867

> <chembl_pref_name>
None

> <i_m_ct_stereo_status>
1

> <s_m_source_file>
sdf/inactives_sanitized.sdf

> <i_m_source_file_index>
421

> <i_lp_mmshare_version>
49012

> <i_f3d_flags>
0

> <s_epik_input>
W2NIXTFbY0hdW2NIXVtjSF1uYzFcW0NIXT1bQ0hdXFtDQEhdKFtDSDJdW0NIMl1jMltjSF1bY0hdW2NIXVtjSF1bY0hdMilbTkhdQyg9TylbQ0BIXShbQ0gyXWMzW2NIXVtjSF1bY0hdW2NIXVtjSF0zKVtOSF1DKD1PKU9bQ0gyXWM0W2NIXVtjSF1bY0hdW2NIXVtjSF00

> <s_epik_cmdline>
J2VwaWtfcHl0aG9uJywgJy1waHQnLCAnMC41JywgJy1waCcsICc3LjUnLCAnLW50JywgJy1tYScsICcyMDAnLCAnLWltYWUnLCAnPGluZmlsZS5tYWU+JywgJy1vbWFlJywgJzxvdXRmaWxlLm1hZT4n

> <r_lp_tautomer_probability>
1

> <r_epik_Ionization_Penalty>
  0.0068

> <r_epik_Ionization_Penalty_Charging>
  0.0000

> <r_epik_Ionization_Penalty_Neutral>
  0.0068

> <r_epik_State_Penalty>
 -0.0000

> <r_epik_Charging_Adjusted_Penalty>
0

> <i_epik_Tot_Q>
0

> <i_epik_Tot_abs_Q>
0

> <s_epik_Chemistry_Notes>
This compound has an ester and may undergo hydrolysis at high or low pH.

> <s_lp_Force_Field>
OPLS3e

> <r_lp_Energy>
41.562983

> <b_lp_Chiralities_Consistent>
1

> <s_lp_Variant>
 -1

$$$$
sdf/inactives_sanitized.sdf:422
                    3D
 Schrodinger Suite 2020-1.
 88 91  0  0  1  0            999 V2000
    3.8666    0.9095    4.5169 C   0  0  1  0  0  0
    2.5332    0.2388    4.2189 C   0  0  1  0  0  0
    3.0272    1.3611    3.4175 N   0  0  0  0  0  0
    3.9814    1.8062    5.7560 C   0  0  0  0  0  0
    5.1998    1.7127    6.3401 O   0  0  0  0  0  0
    3.0469    2.5116    6.1459 O   0  0  0  0  0  0
    5.5169    2.4298    7.5326 C   0  0  0  0  0  0
    4.8964    1.7733    8.7595 C   0  0  0  0  0  0
    2.5236   -1.2269    3.7299 C   0  0  0  0  0  0
    1.6231   -1.9901    4.0825 O   0  0  0  0  0  0
    3.5744   -1.5696    2.9420 O   0  0  0  0  0  0
    3.7176   -2.8855    2.4093 C   0  0  0  0  0  0
    4.1796   -3.8802    3.4688 C   0  0  0  0  0  0
   -2.2386   -3.2448    2.8782 C   0  0  0  0  0  0
   -2.1889   -2.0989    1.8443 C   0  0  0  0  0  0
   -0.7476   -1.5610    1.6927 C   0  0  0  0  0  0
   -3.2037   -0.9802    2.1648 C   0  0  0  0  0  0
   -0.5436   -0.5309    0.5582 C   0  0  1  0  0  0
    0.8999    0.0283    0.6377 C   0  0  0  0  0  0
    1.0663    1.3021    1.0699 N   0  0  0  0  0  0
    0.0119    2.1890    1.5696 C   0  0  0  0  0  0
    0.7350    3.3902    2.1683 C   0  0  0  0  0  0
    2.0303    3.4488    1.3740 C   0  0  0  0  0  0
    2.3775    1.9786    1.0744 C   0  0  1  0  0  0
   -0.7911   -1.2119   -0.7278 N   0  0  0  0  0  0
   -0.8849   -0.5521   -1.9570 C   0  0  0  0  0  0
   -1.0173   -1.1371   -3.0309 O   0  0  0  0  0  0
   -0.8035    0.8096   -1.8184 O   0  0  0  0  0  0
    1.8267   -0.6985    0.2756 O   0  0  0  0  0  0
   -0.7238    1.7582   -2.8967 C   0  0  0  0  0  0
   -2.0101    1.7437   -3.7575 C   0  0  0  0  0  0
    0.5333    1.5134   -3.7675 C   0  0  0  0  0  0
   -0.5908    3.1244   -2.1931 C   0  0  0  0  0  0
    3.4021    1.3682    2.0592 C   0  0  0  0  0  0
    4.4954    1.0028    1.6255 O   0  0  0  0  0  0
    3.4826   -5.0783    3.6426 C   0  0  0  0  0  0
    3.9006   -5.9912    4.6076 C   0  0  0  0  0  0
    5.0145   -5.7030    5.3938 C   0  0  0  0  0  0
    5.7156   -4.5109    5.2232 C   0  0  0  0  0  0
    5.2991   -3.5985    4.2576 C   0  0  0  0  0  0
    3.9221    2.4521    9.4948 C   0  0  0  0  0  0
    3.3536    1.8502   10.6144 C   0  0  0  0  0  0
    3.7634    0.5740   10.9948 C   0  0  0  0  0  0
    4.7370   -0.1065   10.2663 C   0  0  0  0  0  0
    5.3057    0.4946    9.1465 C   0  0  0  0  0  0
    4.7960    0.3921    4.2668 H   0  0  0  0  0  0
    1.6748    0.4562    4.8567 H   0  0  0  0  0  0
    6.5999    2.4393    7.6578 H   0  0  0  0  0  0
    5.2071    3.4735    7.4524 H   0  0  0  0  0  0
    2.7807   -3.2112    1.9530 H   0  0  0  0  0  0
    4.4618   -2.8590    1.6131 H   0  0  0  0  0  0
   -2.8146   -2.9868    3.7670 H   0  0  0  0  0  0
   -1.2438   -3.5281    3.2240 H   0  0  0  0  0  0
   -2.6922   -4.1369    2.4452 H   0  0  0  0  0  0
   -2.4819   -2.5379    0.8897 H   0  0  0  0  0  0
   -0.4570   -1.1076    2.6413 H   0  0  0  0  0  0
   -0.0631   -2.3978    1.5394 H   0  0  0  0  0  0
   -2.7134   -0.0730    2.5191 H   0  0  0  0  0  0
   -3.9248   -1.2713    2.9284 H   0  0  0  0  0  0
   -3.7750   -0.7151    1.2747 H   0  0  0  0  0  0
   -1.2924    0.2523    0.6589 H   0  0  0  0  0  0
   -0.6237    1.7084    2.3147 H   0  0  0  0  0  0
   -0.6124    2.5033    0.7328 H   0  0  0  0  0  0
    0.1541    4.3114    2.1198 H   0  0  0  0  0  0
    0.9576    3.1950    3.2178 H   0  0  0  0  0  0
    1.8563    3.9741    0.4339 H   0  0  0  0  0  0
    2.8180    3.9869    1.9036 H   0  0  0  0  0  0
    2.8034    1.9251    0.0699 H   0  0  0  0  0  0
   -0.7614   -2.2209   -0.7294 H   0  0  0  0  0  0
   -2.0072    2.5532   -4.4883 H   0  0  0  0  0  0
   -2.9006    1.8635   -3.1394 H   0  0  0  0  0  0
   -2.1256    0.8128   -4.3121 H   0  0  0  0  0  0
    0.4761    0.5763   -4.3208 H   0  0  0  0  0  0
    1.4350    1.4706   -3.1550 H   0  0  0  0  0  0
    0.6719    2.3100   -4.4992 H   0  0  0  0  0  0
   -0.5216    3.9418   -2.9119 H   0  0  0  0  0  0
    0.3008    3.1647   -1.5652 H   0  0  0  0  0  0
   -1.4467    3.3274   -1.5480 H   0  0  0  0  0  0
    2.6172   -5.3016    3.0354 H   0  0  0  0  0  0
    3.3637   -6.9180    4.7465 H   0  0  0  0  0  0
    5.3381   -6.4114    6.1420 H   0  0  0  0  0  0
    6.5781   -4.2956    5.8367 H   0  0  0  0  0  0
    5.8427   -2.6741    4.1250 H   0  0  0  0  0  0
    3.6017    3.4403    9.1984 H   0  0  0  0  0  0
    2.5979    2.3701   11.1845 H   0  0  0  0  0  0
    3.3218    0.1075   11.8631 H   0  0  0  0  0  0
    5.0484   -1.0955   10.5680 H   0  0  0  0  0  0
    6.0601   -0.0323    8.5801 H   0  0  0  0  0  0
  1  2  1  0  0  0
  1  3  1  0  0  0
  1  4  1  0  0  0
  1 46  1  0  0  0
  2  3  1  0  0  0
  2  9  1  0  0  0
  2 47  1  0  0  0
  3 34  1  0  0  0
  4  6  2  0  0  0
  4  5  1  0  0  0
  5  7  1  0  0  0
  7  8  1  0  0  0
  7 48  1  0  0  0
  7 49  1  0  0  0
  8 41  2  0  0  0
  8 45  1  0  0  0
  9 10  2  0  0  0
  9 11  1  0  0  0
 11 12  1  0  0  0
 12 13  1  0  0  0
 12 50  1  0  0  0
 12 51  1  0  0  0
 13 36  2  0  0  0
 13 40  1  0  0  0
 14 15  1  0  0  0
 14 52  1  0  0  0
 14 53  1  0  0  0
 14 54  1  0  0  0
 15 16  1  0  0  0
 15 17  1  0  0  0
 15 55  1  0  0  0
 16 18  1  0  0  0
 16 56  1  0  0  0
 16 57  1  0  0  0
 17 58  1  0  0  0
 17 59  1  0  0  0
 17 60  1  0  0  0
 18 25  1  0  0  0
 18 19  1  0  0  0
 18 61  1  0  0  0
 19 29  2  0  0  0
 19 20  1  0  0  0
 20 24  1  0  0  0
 20 21  1  0  0  0
 21 22  1  0  0  0
 21 62  1  0  0  0
 21 63  1  0  0  0
 22 23  1  0  0  0
 22 64  1  0  0  0
 22 65  1  0  0  0
 23 24  1  0  0  0
 23 66  1  0  0  0
 23 67  1  0  0  0
 24 34  1  0  0  0
 24 68  1  0  0  0
 25 26  1  0  0  0
 25 69  1  0  0  0
 26 27  2  0  0  0
 26 28  1  0  0  0
 28 30  1  0  0  0
 30 31  1  0  0  0
 30 32  1  0  0  0
 30 33  1  0  0  0
 31 70  1  0  0  0
 31 71  1  0  0  0
 31 72  1  0  0  0
 32 73  1  0  0  0
 32 74  1  0  0  0
 32 75  1  0  0  0
 33 76  1  0  0  0
 33 77  1  0  0  0
 33 78  1  0  0  0
 34 35  2  0  0  0
 36 37  1  0  0  0
 36 79  1  0  0  0
 37 38  2  0  0  0
 37 80  1  0  0  0
 38 39  1  0  0  0
 38 81  1  0  0  0
 39 40  2  0  0  0
 39 82  1  0  0  0
 40 83  1  0  0  0
 41 42  1  0  0  0
 41 84  1  0  0  0
 42 43  2  0  0  0
 42 85  1  0  0  0
 43 44  1  0  0  0
 43 86  1  0  0  0
 44 45  2  0  0  0
 44 87  1  0  0  0
 45 88  1  0  0  0
M  END
> <chembl_id>
CHEMBL383647

> <chembl_pref_name>
None

> <i_m_ct_stereo_status>
1

> <s_m_source_file>
sdf/inactives_sanitized.sdf

> <i_m_source_file_index>
422

> <i_lp_mmshare_version>
49012

> <i_f3d_flags>
0

> <s_epik_input>
W2NIXTFbY0hdW2NIXVtjSF1bY0hdYzFbQ0gyXU9DKD1PKVtDQEhdMltDQEhdKEMoPU8pT1tDSDJdYzNbY0hdW2NIXVtjSF1bY0hdW2NIXTMpTjJDKD1PKVtDQEBIXTRbQ0gyXVtDSDJdW0NIMl1ONEMoPU8pW0NASF0oW0NIMl1bQ0hdKFtDSDNdKVtDSDNdKVtOSF1DKD1PKU9DKFtDSDNdKShbQ0gzXSlbQ0gzXQ==

> <s_epik_cmdline>
J2VwaWtfcHl0aG9uJywgJy1waHQnLCAnMC41JywgJy1waCcsICc3LjUnLCAnLW50JywgJy1tYScsICcyMDAnLCAnLWltYWUnLCAnPGluZmlsZS5tYWU+JywgJy1vbWFlJywgJzxvdXRmaWxlLm1hZT4n

> <r_lp_tautomer_probability>
1

> <r_epik_Ionization_Penalty>
  0.0000

> <r_epik_Ionization_Penalty_Charging>
  0.0000

> <r_epik_Ionization_Penalty_Neutral>
  0.0000

> <r_epik_State_Penalty>
 -0.0000

> <r_epik_Charging_Adjusted_Penalty>
0

> <i_epik_Tot_Q>
0

> <i_epik_Tot_abs_Q>
0

> <s_epik_Chemistry_Notes>
This compound has an ester and may undergo hydrolysis at high or low pH.

> <s_lp_Force_Field>
OPLS3e

> <r_lp_Energy>
40.185896

> <b_lp_Chiralities_Consistent>
1

> <s_lp_Variant>
sdf/inactives_sanitized.sdf:422-1

$$$$
sdf/inactives_sanitized.sdf:423
                    3D
 Schrodinger Suite 2020-1.
 21 22  0  0  1  0            999 V2000
   -0.6301    1.2118    0.0000 N   0  0  0  0  0  0
    0.0543    0.0394   -0.0000 C   0  0  0  0  0  0
   -0.6222   -1.1802   -0.0000 C   0  0  0  0  0  0
   -2.0114   -1.2018   -0.0000 C   0  0  0  0  0  0
   -2.7700    0.0100   -0.0000 C   0  0  0  0  0  0
   -4.2193    0.0889   -0.0000 C   0  0  0  0  0  0
   -4.8027    1.3638   -0.0000 C   0  0  0  0  0  0
   -4.0559    2.5280   -0.0000 C   0  0  0  0  0  0
   -2.6700    2.4876    0.0000 C   0  0  0  0  0  0
   -1.9996    1.2258   -0.0000 C   0  0  0  0  0  0
    1.5555    0.0821    0.0000 C   0  0  0  0  0  0
    2.1765   -1.0063    0.0000 O   0  0  0  0  0  0
    2.1152    1.2032    0.0000 O   0  5  0  0  0  0
   -5.1410   -1.0902   -0.0000 N   0  3  0  0  0  0
   -6.3528   -0.8852   -0.0000 O   0  0  0  0  0  0
   -4.7028   -2.2320   -0.0000 O   0  5  0  0  0  0
   -2.0468    3.5998    0.0000 O   0  5  0  0  0  0
   -0.0875   -2.1196   -0.0000 H   0  0  0  0  0  0
   -2.4663   -2.1744   -0.0000 H   0  0  0  0  0  0
   -5.8768    1.4762   -0.0000 H   0  0  0  0  0  0
   -4.5753    3.4763   -0.0000 H   0  0  0  0  0  0
  1  2  2  0  0  0
  1 10  1  0  0  0
  2  3  1  0  0  0
  2 11  1  0  0  0
  3  4  2  0  0  0
  3 18  1  0  0  0
  4  5  1  0  0  0
  4 19  1  0  0  0
  5  6  2  0  0  0
  5 10  1  0  0  0
  6  7  1  0  0  0
  6 14  1  0  0  0
  7  8  2  0  0  0
  7 20  1  0  0  0
  8  9  1  0  0  0
  8 21  1  0  0  0
  9 10  2  0  0  0
  9 17  1  0  0  0
 11 12  2  0  0  0
 11 13  1  0  0  0
 14 15  2  0  0  0
 14 16  1  0  0  0
M  CHG  4  13  -1  14   1  16  -1  17  -1
M  END
> <chembl_id>
CHEMBL4225182

> <chembl_pref_name>
None

> <s_m_source_file>
sdf/inactives_sanitized.sdf

> <i_m_source_file_index>
423

> <i_lp_mmshare_version>
49012

> <i_m_ct_stereo_status>
1

> <i_f3d_flags>
0

> <s_epik_input>
W2NIXTFbY0hdYyhDKD1PKVtPSF0pbmMoYzEyKWMoW09IXSlbY0hdW2NIXWMyW04rXSg9TylbTy1d

> <s_epik_cmdline>
J2VwaWtfcHl0aG9uJywgJy1waHQnLCAnMC41JywgJy1waCcsICc3LjUnLCAnLW50JywgJy1tYScsICcyMDAnLCAnLWltYWUnLCAnPGluZmlsZS5tYWU+JywgJy1vbWFlJywgJzxvdXRmaWxlLm1hZT4n

> <r_lp_tautomer_probability>
1

> <r_epik_Ionization_Penalty>
  0.0008

> <r_epik_Ionization_Penalty_Charging>
  0.0008

> <r_epik_Ionization_Penalty_Neutral>
  0.0000

> <r_epik_State_Penalty>
 -0.0000

> <r_epik_Charging_Adjusted_Penalty>
0.000768149524446073

> <i_epik_Tot_Q>
-2

> <i_epik_Tot_abs_Q>
4

> <s_lp_Force_Field>
OPLS3e

> <r_lp_Energy>
39.176955

> <b_lp_Chiralities_Consistent>
1

> <s_lp_Variant>
sdf/inactives_sanitized.sdf:423-1

$$$$
sdf/inactives_sanitized.sdf:424
                    3D
 Schrodinger Suite 2020-1.
 61 65  0  0  1  0            999 V2000
   -2.6119   -3.5953    3.9890 C   0  0  0  0  0  0
   -2.0818   -3.0254    2.6627 C   0  0  2  0  0  0
   -0.5313   -2.9359    2.6401 C   0  0  0  0  0  0
   -0.0306   -2.3293    1.3108 C   0  0  0  0  0  0
   -0.6258   -0.9092    1.1301 C   0  0  2  0  0  0
   -2.1584   -1.1016    0.9923 C   0  0  0  0  0  0
   -2.7290   -1.6576    2.3137 C   0  0  0  0  0  0
    0.0038   -0.1085   -0.0594 C   0  0  2  0  0  0
    1.4667   -0.0353    0.0255 N   0  0  0  0  0  0
    2.3464   -0.6564   -0.7844 C   0  0  0  0  0  0
    1.9995   -1.3935   -1.7101 O   0  0  0  0  0  0
    3.8140   -0.4260   -0.4885 C   0  0  0  0  0  0
    4.7825   -1.2523   -1.0785 C   0  0  0  0  0  0
    6.1388   -1.0615   -0.8211 C   0  0  0  0  0  0
    6.5530   -0.0406    0.0304 C   0  0  0  0  0  0
    5.6099    0.8019    0.6295 C   0  0  0  0  0  0
    4.2461    0.6056    0.3644 C   0  0  0  0  0  0
    6.0389    1.8343    1.4949 N   0  0  0  0  0  0
    7.1588    1.8901    2.2954 C   0  0  0  0  0  0
    7.2104    3.0179    2.9570 N   0  0  0  0  0  0
    6.0745    3.7182    2.5653 N   0  0  0  0  0  0
    5.3470    2.9740    1.6554 N   0  0  0  0  0  0
   -0.5143    1.3517   -0.1733 C   0  0  0  0  0  0
   -0.7870    1.9497    0.8704 O   0  0  0  0  0  0
   -0.6295    1.9307   -1.3990 N   0  0  0  0  0  0
   -0.3548    1.2358   -2.6644 C   0  0  0  0  0  0
   -0.3188    2.3590   -3.6983 C   0  0  2  0  0  0
    1.3249    3.0682   -3.6680 Cl  0  0  0  0  0  0
   -1.2945    3.3965   -3.1589 C   0  0  1  0  0  0
   -2.6279    3.1062   -3.5518 O   0  0  0  0  0  0
   -3.4796    3.6620   -2.5684 C   0  0  0  0  0  0
   -2.7542    3.4168   -1.2593 C   0  0  0  0  0  0
   -3.2586    3.3544   -0.1398 O   0  0  0  0  0  0
   -1.2797    3.2418   -1.6299 C   0  0  1  0  0  0
   -2.3612   -2.9465    4.8292 H   0  0  0  0  0  0
   -2.1900   -4.5801    4.1921 H   0  0  0  0  0  0
   -3.6968   -3.7038    3.9655 H   0  0  0  0  0  0
   -2.3606   -3.7095    1.8588 H   0  0  0  0  0  0
   -0.1861   -2.3261    3.4770 H   0  0  0  0  0  0
   -0.0945   -3.9213    2.8078 H   0  0  0  0  0  0
    1.0577   -2.2825    1.3453 H   0  0  0  0  0  0
   -0.2438   -2.9613    0.4469 H   0  0  0  0  0  0
   -0.4071   -0.3408    2.0375 H   0  0  0  0  0  0
   -2.6433   -0.1475    0.7847 H   0  0  0  0  0  0
   -2.4050   -1.7207    0.1281 H   0  0  0  0  0  0
   -2.5502   -0.9469    3.1226 H   0  0  0  0  0  0
   -3.8138   -1.7570    2.2576 H   0  0  0  0  0  0
   -0.2874   -0.6549   -0.9572 H   0  0  0  0  0  0
    1.8218    0.5525    0.7654 H   0  0  0  0  0  0
    4.4943   -2.0549   -1.7426 H   0  0  0  0  0  0
    6.8706   -1.7069   -1.2843 H   0  0  0  0  0  0
    7.6100    0.0924    0.2105 H   0  0  0  0  0  0
    3.5246    1.2616    0.8309 H   0  0  0  0  0  0
    7.8628    1.0721    2.3365 H   0  0  0  0  0  0
    0.5741    0.6659   -2.6517 H   0  0  0  0  0  0
   -1.1728    0.5454   -2.8753 H   0  0  0  0  0  0
   -0.5726    2.0153   -4.7015 H   0  0  0  0  0  0
   -1.0356    4.4017   -3.4998 H   0  0  0  0  0  0
   -3.6069    4.7323   -2.7354 H   0  0  0  0  0  0
   -4.4599    3.1855   -2.5862 H   0  0  0  0  0  0
   -0.6781    4.0278   -1.1719 H   0  0  0  0  0  0
  1  2  1  0  0  0
  1 35  1  0  0  0
  1 36  1  0  0  0
  1 37  1  0  0  0
  2  3  1  0  0  0
  2  7  1  0  0  0
  2 38  1  0  0  0
  3  4  1  0  0  0
  3 39  1  0  0  0
  3 40  1  0  0  0
  4  5  1  0  0  0
  4 41  1  0  0  0
  4 42  1  0  0  0
  5  6  1  0  0  0
  5  8  1  0  0  0
  5 43  1  0  0  0
  6  7  1  0  0  0
  6 44  1  0  0  0
  6 45  1  0  0  0
  7 46  1  0  0  0
  7 47  1  0  0  0
  8  9  1  0  0  0
  8 23  1  0  0  0
  8 48  1  0  0  0
  9 10  1  0  0  0
  9 49  1  0  0  0
 10 11  2  0  0  0
 10 12  1  0  0  0
 12 13  2  0  0  0
 12 17  1  0  0  0
 13 14  1  0  0  0
 13 50  1  0  0  0
 14 15  2  0  0  0
 14 51  1  0  0  0
 15 16  1  0  0  0
 15 52  1  0  0  0
 16 17  2  0  0  0
 16 18  1  0  0  0
 17 53  1  0  0  0
 18 19  1  0  0  0
 18 22  1  0  0  0
 19 20  2  0  0  0
 19 54  1  0  0  0
 20 21  1  0  0  0
 21 22  2  0  0  0
 23 24  2  0  0  0
 23 25  1  0  0  0
 25 26  1  0  0  0
 25 34  1  0  0  0
 26 27  1  0  0  0
 26 55  1  0  0  0
 26 56  1  0  0  0
 27 28  1  0  0  0
 27 29  1  0  0  0
 27 57  1  0  0  0
 29 30  1  0  0  0
 29 34  1  0  0  0
 29 58  1  0  0  0
 30 31  1  0  0  0
 31 32  1  0  0  0
 31 59  1  0  0  0
 31 60  1  0  0  0
 32 33  2  0  0  0
 32 34  1  0  0  0
 34 61  1  0  0  0
M  END
> <chembl_id>
CHEMBL3648408

> <chembl_pref_name>
None

> <i_m_ct_stereo_status>
1

> <s_m_source_file>
sdf/inactives_sanitized.sdf

> <i_m_source_file_index>
424

> <i_lp_mmshare_version>
49012

> <i_f3d_flags>
0

> <s_epik_input>
TzFbQ0gyXUMoPU8pW0NASF0oW0NASF0xMilOKFtDSDJdW0NAQEhdMkNsKUMoPU8pW0NASF0oW0NAQEhdKFtDSDJdW0NIMl0zKVtDSDJdW0NIMl1bQ0BIXTNbQ0gzXSlbTkhdQyg9TyljNFtjSF1bY0hdW2NIXWMoW2NIXTQpLW41W2NIXW5ubjU=

> <s_epik_cmdline>
J2VwaWtfcHl0aG9uJywgJy1waHQnLCAnMC41JywgJy1waCcsICc3LjUnLCAnLW50JywgJy1tYScsICcyMDAnLCAnLWltYWUnLCAnPGluZmlsZS5tYWU+JywgJy1vbWFlJywgJzxvdXRmaWxlLm1hZT4n

> <r_lp_tautomer_probability>
1

> <r_epik_Ionization_Penalty>
  0.0000

> <r_epik_Ionization_Penalty_Charging>
  0.0000

> <r_epik_Ionization_Penalty_Neutral>
  0.0000

> <r_epik_State_Penalty>
 -0.0000

> <r_epik_Charging_Adjusted_Penalty>
0

> <i_epik_Tot_Q>
0

> <i_epik_Tot_abs_Q>
0

> <s_lp_Force_Field>
OPLS3e

> <r_lp_Energy>
33.27342

> <b_lp_Chiralities_Consistent>
1

> <s_lp_Variant>
sdf/inactives_sanitized.sdf:424-1

$$$$
sdf/inactives_sanitized.sdf:425
                    3D
 Schrodinger Suite 2020-1.
 53 55  0  0  1  0            999 V2000
   -2.1816    0.4979    1.2787 C   0  0  0  0  0  0
   -0.7597    0.9351    0.8936 C   0  0  0  0  0  0
   -0.8059    1.6101   -0.2558 F   0  0  0  0  0  0
   -0.3101    1.7826    1.8194 F   0  0  0  0  0  0
    0.1767   -0.2917    0.7545 C   0  0  0  0  0  0
    1.6078   -0.0119    0.2114 C   0  0  2  0  0  0
    2.3516   -1.2495   -0.0358 N   0  0  0  0  0  0
    2.1971   -2.0680   -1.0965 C   0  0  0  0  0  0
    1.3881   -1.8212   -1.9929 O   0  0  0  0  0  0
    2.9969   -3.1730   -1.1087 N   0  0  0  0  0  0
    3.9266   -3.5254   -0.0370 C   0  0  0  0  0  0
    4.2883   -4.9684   -0.3355 C   0  0  0  0  0  0
    4.1333   -5.0172   -1.7334 O   0  0  0  0  0  0
    3.0921   -4.1798   -2.1538 C   0  0  0  0  0  0
    1.7834   -5.0000   -2.2596 C   0  0  0  0  0  0
    1.9705   -6.1852   -3.2343 C   0  0  0  0  0  0
    2.4317   -5.7094   -4.6285 C   0  0  0  0  0  0
    3.6571   -4.7734   -4.5555 C   0  0  0  0  0  0
    3.4362   -3.6182   -3.5515 C   0  0  0  0  0  0
    2.4436    0.8857    1.1444 C   0  0  0  0  0  0
    2.8178    0.4544    2.2366 O   0  0  0  0  0  0
    2.6815    2.1361    0.7146 N   0  0  0  0  0  0
    3.3583    3.1532    1.5129 C   0  0  0  0  0  0
    4.8241    2.9489    1.8535 C   0  0  0  0  0  0
    4.4260    3.9905    0.8410 C   0  0  0  0  0  0
    2.5173    3.7860    2.5448 C   0  0  0  0  0  0
    1.8567    4.2829    3.3546 N   0  0  0  0  0  0
   -2.8446    1.3587    1.3726 H   0  0  0  0  0  0
   -2.1901   -0.0289    2.2336 H   0  0  0  0  0  0
   -2.6113   -0.1659    0.5278 H   0  0  0  0  0  0
    0.2436   -0.8090    1.7136 H   0  0  0  0  0  0
   -0.3070   -1.0052    0.0851 H   0  0  0  0  0  0
    1.4994    0.4969   -0.7496 H   0  0  0  0  0  0
    3.0341   -1.4888    0.6687 H   0  0  0  0  0  0
    4.8006   -2.8739   -0.0746 H   0  0  0  0  0  0
    3.4522   -3.4329    0.9410 H   0  0  0  0  0  0
    5.3220   -5.1647   -0.0504 H   0  0  0  0  0  0
    3.6493   -5.7086    0.1485 H   0  0  0  0  0  0
    1.4995   -5.3673   -1.2722 H   0  0  0  0  0  0
    0.9752   -4.3606   -2.6178 H   0  0  0  0  0  0
    2.6964   -6.8910   -2.8278 H   0  0  0  0  0  0
    1.0351   -6.7383   -3.3255 H   0  0  0  0  0  0
    2.6564   -6.5695   -5.2603 H   0  0  0  0  0  0
    1.6094   -5.1831   -5.1158 H   0  0  0  0  0  0
    4.5413   -5.3475   -4.2746 H   0  0  0  0  0  0
    3.8674   -4.3662   -5.5451 H   0  0  0  0  0  0
    4.3346   -3.0035   -3.4795 H   0  0  0  0  0  0
    2.6263   -2.9819   -3.9096 H   0  0  0  0  0  0
    2.2697    2.4406   -0.1557 H   0  0  0  0  0  0
    5.1879    3.2781    2.8272 H   0  0  0  0  0  0
    5.3331    2.0507    1.5016 H   0  0  0  0  0  0
    4.5167    5.0428    1.1122 H   0  0  0  0  0  0
    4.6608    3.8099   -0.2086 H   0  0  0  0  0  0
  1  2  1  0  0  0
  1 28  1  0  0  0
  1 29  1  0  0  0
  1 30  1  0  0  0
  2  3  1  0  0  0
  2  4  1  0  0  0
  2  5  1  0  0  0
  5  6  1  0  0  0
  5 31  1  0  0  0
  5 32  1  0  0  0
  6  7  1  0  0  0
  6 20  1  0  0  0
  6 33  1  0  0  0
  7  8  1  0  0  0
  7 34  1  0  0  0
  8  9  2  0  0  0
  8 10  1  0  0  0
 10 11  1  0  0  0
 10 14  1  0  0  0
 11 12  1  0  0  0
 11 35  1  0  0  0
 11 36  1  0  0  0
 12 13  1  0  0  0
 12 37  1  0  0  0
 12 38  1  0  0  0
 13 14  1  0  0  0
 14 15  1  0  0  0
 14 19  1  0  0  0
 15 16  1  0  0  0
 15 39  1  0  0  0
 15 40  1  0  0  0
 16 17  1  0  0  0
 16 41  1  0  0  0
 16 42  1  0  0  0
 17 18  1  0  0  0
 17 43  1  0  0  0
 17 44  1  0  0  0
 18 19  1  0  0  0
 18 45  1  0  0  0
 18 46  1  0  0  0
 19 47  1  0  0  0
 19 48  1  0  0  0
 20 21  2  0  0  0
 20 22  1  0  0  0
 22 23  1  0  0  0
 22 49  1  0  0  0
 23 24  1  0  0  0
 23 25  1  0  0  0
 23 26  1  0  0  0
 24 25  1  0  0  0
 24 50  1  0  0  0
 24 51  1  0  0  0
 25 52  1  0  0  0
 25 53  1  0  0  0
 26 27  3  0  0  0
M  END
> <chembl_id>
CHEMBL3640722

> <chembl_pref_name>
None

> <i_m_ct_stereo_status>
1

> <s_m_source_file>
sdf/inactives_sanitized.sdf

> <i_m_source_file_index>
425

> <i_lp_mmshare_version>
49012

> <i_f3d_flags>
0

> <s_epik_input>
W0NIMl0xW0NIMl1DMShDI04pW05IXUMoPU8pW0NASF0oW0NIMl1DKEYpKEYpW0NIM10pW05IXUMoPU8pTihbQ0gyXVtDSDJdTzIpQzIzW0NIMl1bQ0gyXVtDSDJdW0NIMl1bQ0gyXTM=

> <s_epik_cmdline>
J2VwaWtfcHl0aG9uJywgJy1waHQnLCAnMC41JywgJy1waCcsICc3LjUnLCAnLW50JywgJy1tYScsICcyMDAnLCAnLWltYWUnLCAnPGluZmlsZS5tYWU+JywgJy1vbWFlJywgJzxvdXRmaWxlLm1hZT4n

> <r_lp_tautomer_probability>
1

> <r_epik_Ionization_Penalty>
  0.0000

> <r_epik_Ionization_Penalty_Charging>
  0.0000

> <r_epik_Ionization_Penalty_Neutral>
  0.0000

> <r_epik_State_Penalty>
 -0.0000

> <r_epik_Charging_Adjusted_Penalty>
0

> <i_epik_Tot_Q>
0

> <i_epik_Tot_abs_Q>
0

> <s_lp_Force_Field>
OPLS3e

> <r_lp_Energy>
21.651641

> <b_lp_Chiralities_Consistent>
1

> <s_lp_Variant>
sdf/inactives_sanitized.sdf:425-1

$$$$
sdf/inactives_sanitized.sdf:426
                    3D
 Schrodinger Suite 2020-1.
 55 57  0  0  1  0            999 V2000
   -2.6070    1.3486   -0.6868 C   0  0  0  0  0  0
   -1.1083    1.4535   -0.3637 C   0  0  0  0  0  0
   -0.5287    2.2352   -1.2754 F   0  0  0  0  0  0
   -0.9600    2.0603    0.8148 F   0  0  0  0  0  0
   -0.4521    0.0507   -0.3311 C   0  0  0  0  0  0
    1.0475    0.0221    0.0893 C   0  0  2  0  0  0
    1.8704    0.5532   -0.9313 N   0  5  0  0  0  0
    2.9148    1.6437   -0.5058 S   0  0  0  0  0  0
    2.3057    2.7988    0.1641 O   0  0  0  0  0  0
    4.1064    1.0717    0.1318 O   0  0  0  0  0  0
    3.4564    2.2403   -2.0876 N   0  0  0  0  0  0
    2.4363    3.0185   -2.8540 C   0  0  0  0  0  0
    3.0738    3.6610   -4.1086 C   0  0  0  0  0  0
    3.7960    2.6151   -5.0058 C   0  0  0  0  0  0
    2.8442    1.5706   -5.6370 C   0  0  0  0  0  0
    2.2855    2.2050   -6.9174 C   0  0  0  0  0  0
    3.2675    3.3180   -7.3107 C   0  0  0  0  0  0
    4.3843    3.2941   -6.2593 C   0  0  0  0  0  0
    4.8994    2.0055   -4.1037 C   0  0  0  0  0  0
    4.2877    1.2856   -2.8811 C   0  0  0  0  0  0
    1.5542   -1.4207    0.3403 C   0  0  0  0  0  0
    1.0381   -2.3796   -0.2394 O   0  0  0  0  0  0
    2.5727   -1.5445    1.2096 N   0  0  0  0  0  0
    3.1618   -2.8183    1.6064 C   0  0  0  0  0  0
    3.8987   -3.6321    0.5575 C   0  0  0  0  0  0
    4.6722   -2.9186    1.6352 C   0  0  0  0  0  0
    2.3904   -3.5699    2.6123 C   0  0  0  0  0  0
    1.7853   -4.1599    3.4029 N   0  0  0  0  0  0
   -3.0742    2.3338   -0.7062 H   0  0  0  0  0  0
   -3.1335    0.7506    0.0579 H   0  0  0  0  0  0
   -2.7708    0.8874   -1.6614 H   0  0  0  0  0  0
   -1.0222   -0.5660    0.3669 H   0  0  0  0  0  0
   -0.5792   -0.4245   -1.3066 H   0  0  0  0  0  0
    1.0939    0.5288    1.0570 H   0  0  0  0  0  0
    1.6634    2.3382   -3.2089 H   0  0  0  0  0  0
    2.0347    3.8138   -2.2258 H   0  0  0  0  0  0
    2.2895    4.1628   -4.6768 H   0  0  0  0  0  0
    3.7596    4.4575   -3.8137 H   0  0  0  0  0  0
    3.4190    0.6822   -5.9054 H   0  0  0  0  0  0
    2.0698    1.2005   -4.9667 H   0  0  0  0  0  0
    2.1738    1.4643   -7.7100 H   0  0  0  0  0  0
    1.2971    2.6260   -6.7286 H   0  0  0  0  0  0
    3.6643    3.1733   -8.3163 H   0  0  0  0  0  0
    2.7619    4.2847   -7.2999 H   0  0  0  0  0  0
    5.2183    2.7008   -6.6391 H   0  0  0  0  0  0
    4.8127    4.2761   -6.0523 H   0  0  0  0  0  0
    5.4842    1.2823   -4.6740 H   0  0  0  0  0  0
    5.6157    2.7662   -3.7879 H   0  0  0  0  0  0
    3.6444    0.4994   -3.2773 H   0  0  0  0  0  0
    5.0961    0.8977   -2.2609 H   0  0  0  0  0  0
    2.9091   -0.7186    1.6836 H   0  0  0  0  0  0
    3.8323   -4.7197    0.5944 H   0  0  0  0  0  0
    3.9590   -3.2532   -0.4636 H   0  0  0  0  0  0
    5.1447   -3.5112    2.4191 H   0  0  0  0  0  0
    5.2657   -2.0470    1.3566 H   0  0  0  0  0  0
  1  2  1  0  0  0
  1 29  1  0  0  0
  1 30  1  0  0  0
  1 31  1  0  0  0
  2  3  1  0  0  0
  2  4  1  0  0  0
  2  5  1  0  0  0
  5  6  1  0  0  0
  5 32  1  0  0  0
  5 33  1  0  0  0
  6  7  1  0  0  0
  6 21  1  0  0  0
  6 34  1  0  0  0
  7  8  1  0  0  0
  8  9  2  0  0  0
  8 10  2  0  0  0
  8 11  1  0  0  0
 11 12  1  0  0  0
 11 20  1  0  0  0
 12 13  1  0  0  0
 12 35  1  0  0  0
 12 36  1  0  0  0
 13 14  1  0  0  0
 13 37  1  0  0  0
 13 38  1  0  0  0
 14 15  1  0  0  0
 14 18  1  0  0  0
 14 19  1  0  0  0
 15 16  1  0  0  0
 15 39  1  0  0  0
 15 40  1  0  0  0
 16 17  1  0  0  0
 16 41  1  0  0  0
 16 42  1  0  0  0
 17 18  1  0  0  0
 17 43  1  0  0  0
 17 44  1  0  0  0
 18 45  1  0  0  0
 18 46  1  0  0  0
 19 20  1  0  0  0
 19 47  1  0  0  0
 19 48  1  0  0  0
 20 49  1  0  0  0
 20 50  1  0  0  0
 21 22  2  0  0  0
 21 23  1  0  0  0
 23 24  1  0  0  0
 23 51  1  0  0  0
 24 25  1  0  0  0
 24 26  1  0  0  0
 24 27  1  0  0  0
 25 26  1  0  0  0
 25 52  1  0  0  0
 25 53  1  0  0  0
 26 54  1  0  0  0
 26 55  1  0  0  0
 27 28  3  0  0  0
M  CHG  1   7  -1
M  END
> <chembl_id>
CHEMBL3640717

> <chembl_pref_name>
None

> <i_m_ct_stereo_status>
1

> <s_m_source_file>
sdf/inactives_sanitized.sdf

> <i_m_source_file_index>
426

> <i_lp_mmshare_version>
49012

> <i_f3d_flags>
0

> <s_epik_input>
W0NIMl0xW0NIMl1DMShDI04pW05IXUMoPU8pW0NASF0oW0NIMl1DKEYpKEYpW0NIM10pW05IXVMoPU8pKD1PKU4oW0NIMl1bQ0gyXTIpW0NIMl1bQ0gyXUMyM1tDSDJdW0NIMl1bQ0gyXVtDSDJdMw==

> <s_epik_cmdline>
J2VwaWtfcHl0aG9uJywgJy1waHQnLCAnMC41JywgJy1waCcsICc3LjUnLCAnLW50JywgJy1tYScsICcyMDAnLCAnLWltYWUnLCAnPGluZmlsZS5tYWU+JywgJy1vbWFlJywgJzxvdXRmaWxlLm1hZT4n

> <r_epik_Ionization_Penalty>
  0.3323

> <r_epik_Ionization_Penalty_Charging>
  0.3323

> <r_epik_Ionization_Penalty_Neutral>
  0.0000

> <r_epik_State_Penalty>
  0.3275

> <r_epik_Charging_Adjusted_Penalty>
0.659756911265005

> <i_epik_Tot_Q>
-1

> <i_epik_Tot_abs_Q>
1

> <s_lp_Force_Field>
OPLS3e

> <r_lp_Energy>
38.920708

> <b_lp_Chiralities_Consistent>
1

> <s_lp_Variant>
sdf/inactives_sanitized.sdf:426-1

$$$$
sdf/inactives_sanitized.sdf:426
                    3D
 Schrodinger Suite 2020-1.
 56 58  0  0  1  0            999 V2000
   -2.5085    1.1319    0.1911 C   0  0  0  0  0  0
   -0.9912    1.3507    0.0864 C   0  0  0  0  0  0
   -0.7215    1.9922   -1.0515 F   0  0  0  0  0  0
   -0.6062    2.1494    1.0823 F   0  0  0  0  0  0
   -0.2354   -0.0000    0.1300 C   0  0  0  0  0  0
    1.2967    0.0815   -0.0994 C   0  0  2  0  0  0
    1.8721   -1.2809   -0.1901 N   0  0  2  0  0  0
    2.9572   -1.6979   -1.5143 S   0  0  0  0  0  0
    3.2750   -3.1206   -1.3502 O   0  0  0  0  0  0
    2.3777   -1.1997   -2.7672 O   0  0  0  0  0  0
    4.4112   -0.7611   -1.1428 N   0  0  0  0  0  0
    5.1628   -0.2190   -2.3094 C   0  0  0  0  0  0
    6.2200    0.8066   -1.8382 C   0  0  0  0  0  0
    7.1630    0.2295   -0.7431 C   0  0  0  0  0  0
    8.2126    1.2806   -0.3288 C   0  0  0  0  0  0
    9.3863    1.1395   -1.3067 C   0  0  0  0  0  0
    9.2828   -0.2733   -1.8999 C   0  0  0  0  0  0
    8.0595   -0.9269   -1.2441 C   0  0  0  0  0  0
    6.2341   -0.1515    0.4375 C   0  0  0  0  0  0
    5.2090   -1.2305    0.0255 C   0  0  0  0  0  0
    2.0702    0.7898    1.0311 C   0  0  0  0  0  0
    1.8983    0.4479    2.2019 O   0  0  0  0  0  0
    2.9129    1.7703    0.6493 N   0  0  0  0  0  0
    3.7652    2.6476    1.4666 C   0  0  0  0  0  0
    3.2362    3.2306    2.7639 C   0  0  0  0  0  0
    4.3307    2.1906    2.8016 C   0  0  0  0  0  0
    4.6475    3.5022    0.6554 C   0  0  0  0  0  0
    5.3417    4.1735    0.0177 N   0  0  0  0  0  0
   -3.0443    2.0813    0.1595 H   0  0  0  0  0  0
   -2.7745    0.6357    1.1253 H   0  0  0  0  0  0
   -2.8803    0.5179   -0.6301 H   0  0  0  0  0  0
   -0.4432   -0.5033    1.0764 H   0  0  0  0  0  0
   -0.6554   -0.6454   -0.6439 H   0  0  0  0  0  0
    1.4713    0.5817   -1.0540 H   0  0  0  0  0  0
    1.3120   -2.0398    0.2078 H   0  0  0  0  0  0
    5.7019   -1.0349   -2.7885 H   0  0  0  0  0  0
    4.4737    0.2759   -2.9941 H   0  0  0  0  0  0
    6.8027    1.1266   -2.7031 H   0  0  0  0  0  0
    5.7260    1.7124   -1.4839 H   0  0  0  0  0  0
    7.8066    2.2920   -0.2731 H   0  0  0  0  0  0
    8.5653    1.0665    0.6819 H   0  0  0  0  0  0
    9.3088    1.8858   -2.0986 H   0  0  0  0  0  0
   10.3420    1.3000   -0.8058 H   0  0  0  0  0  0
    9.1429   -0.2151   -2.9802 H   0  0  0  0  0  0
   10.1881   -0.8555   -1.7230 H   0  0  0  0  0  0
    7.5542   -1.6410   -1.8925 H   0  0  0  0  0  0
    8.3897   -1.5192   -0.3887 H   0  0  0  0  0  0
    6.8285   -0.5354    1.2679 H   0  0  0  0  0  0
    5.7295    0.7292    0.8343 H   0  0  0  0  0  0
    5.7861   -2.1050   -0.2765 H   0  0  0  0  0  0
    4.5437   -1.4456    0.8623 H   0  0  0  0  0  0
    2.9216    1.9915   -0.3358 H   0  0  0  0  0  0
    3.4877    4.2610    3.0163 H   0  0  0  0  0  0
    2.2409    2.9542    3.1125 H   0  0  0  0  0  0
    5.3369    2.5074    3.0776 H   0  0  0  0  0  0
    4.1032    1.1965    3.1843 H   0  0  0  0  0  0
  1  2  1  0  0  0
  1 29  1  0  0  0
  1 30  1  0  0  0
  1 31  1  0  0  0
  2  3  1  0  0  0
  2  4  1  0  0  0
  2  5  1  0  0  0
  5  6  1  0  0  0
  5 32  1  0  0  0
  5 33  1  0  0  0
  6  7  1  0  0  0
  6 21  1  0  0  0
  6 34  1  0  0  0
  7  8  1  0  0  0
  7 35  1  0  0  0
  8  9  2  0  0  0
  8 10  2  0  0  0
  8 11  1  0  0  0
 11 12  1  0  0  0
 11 20  1  0  0  0
 12 13  1  0  0  0
 12 36  1  0  0  0
 12 37  1  0  0  0
 13 14  1  0  0  0
 13 38  1  0  0  0
 13 39  1  0  0  0
 14 15  1  0  0  0
 14 18  1  0  0  0
 14 19  1  0  0  0
 15 16  1  0  0  0
 15 40  1  0  0  0
 15 41  1  0  0  0
 16 17  1  0  0  0
 16 42  1  0  0  0
 16 43  1  0  0  0
 17 18  1  0  0  0
 17 44  1  0  0  0
 17 45  1  0  0  0
 18 46  1  0  0  0
 18 47  1  0  0  0
 19 20  1  0  0  0
 19 48  1  0  0  0
 19 49  1  0  0  0
 20 50  1  0  0  0
 20 51  1  0  0  0
 21 22  2  0  0  0
 21 23  1  0  0  0
 23 24  1  0  0  0
 23 52  1  0  0  0
 24 25  1  0  0  0
 24 26  1  0  0  0
 24 27  1  0  0  0
 25 26  1  0  0  0
 25 53  1  0  0  0
 25 54  1  0  0  0
 26 55  1  0  0  0
 26 56  1  0  0  0
 27 28  3  0  0  0
M  END
> <chembl_id>
CHEMBL3640717

> <chembl_pref_name>
None

> <i_m_ct_stereo_status>
1

> <s_m_source_file>
sdf/inactives_sanitized.sdf

> <i_m_source_file_index>
426

> <i_lp_mmshare_version>
49012

> <i_f3d_flags>
0

> <s_epik_input>
W0NIMl0xW0NIMl1DMShDI04pW05IXUMoPU8pW0NASF0oW0NIMl1DKEYpKEYpW0NIM10pW05IXVMoPU8pKD1PKU4oW0NIMl1bQ0gyXTIpW0NIMl1bQ0gyXUMyM1tDSDJdW0NIMl1bQ0gyXVtDSDJdMw==

> <s_epik_cmdline>
J2VwaWtfcHl0aG9uJywgJy1waHQnLCAnMC41JywgJy1waCcsICc3LjUnLCAnLW50JywgJy1tYScsICcyMDAnLCAnLWltYWUnLCAnPGluZmlsZS5tYWU+JywgJy1vbWFlJywgJzxvdXRmaWxlLm1hZT4n

> <r_epik_Ionization_Penalty>
  0.5011

> <r_epik_Ionization_Penalty_Charging>
  0.0000

> <r_epik_Ionization_Penalty_Neutral>
  0.5011

> <r_epik_State_Penalty>
  0.5075

> <r_epik_Charging_Adjusted_Penalty>
0.507526190379304

> <i_epik_Tot_Q>
0

> <i_epik_Tot_abs_Q>
0

> <s_lp_Force_Field>
OPLS3e

> <r_lp_Energy>
36.686166

> <b_lp_Chiralities_Consistent>
1

> <s_lp_Variant>
sdf/inactives_sanitized.sdf:426-2

$$$$
sdf/inactives_sanitized.sdf:427
                    3D
 Schrodinger Suite 2020-1.
 62 65  0  0  1  0            999 V2000
   -1.3730   -1.3796    1.0936 C   0  0  0  0  0  0
   -0.2618   -0.3820    0.7322 C   0  0  0  0  0  0
   -0.6119    0.2827   -0.3696 F   0  0  0  0  0  0
   -0.1663    0.5188    1.7108 F   0  0  0  0  0  0
    1.0858   -1.1140    0.5093 C   0  0  0  0  0  0
    2.2639   -0.2503   -0.0285 C   0  0  2  0  0  0
    3.4373   -1.0655   -0.3524 N   0  0  0  0  0  0
    3.5694   -1.8703   -1.4257 C   0  0  0  0  0  0
    2.7108   -1.9174   -2.3115 O   0  0  0  0  0  0
    4.7714   -2.5099   -1.5178 N   0  0  0  0  0  0
    5.5114   -2.9515   -0.3161 C   0  0  0  0  0  0
    4.9035   -4.3100    0.1136 C   0  0  0  0  0  0
    4.9579   -5.4254   -0.9889 C   0  0  0  0  0  0
    4.4306   -4.7829   -2.3236 C   0  0  0  0  0  0
    5.0285   -3.3928   -2.6712 C   0  0  0  0  0  0
    4.2434   -6.6282   -0.5147 N   0  0  0  0  0  0
    5.2687   -7.3142    0.2653 C   0  0  0  0  0  0
    6.5256   -6.9849   -0.3646 N   0  0  0  0  0  0
    6.4220   -5.9198   -1.1651 C   0  0  0  0  0  0
    7.2718   -5.4983   -1.9482 O   0  0  0  0  0  0
    3.3368   -7.3424   -1.3167 C   0  0  0  0  0  0
    3.7615   -8.4058   -2.1254 C   0  0  0  0  0  0
    2.8706   -9.0332   -2.9919 C   0  0  0  0  0  0
    1.5575   -8.5783   -3.0785 C   0  0  0  0  0  0
    1.1333   -7.4933   -2.3162 C   0  0  0  0  0  0
    2.0270   -6.8686   -1.4506 C   0  0  0  0  0  0
    2.6881    0.8612    0.9513 C   0  0  0  0  0  0
    3.2721    0.5688    1.9965 O   0  0  0  0  0  0
    2.3395    2.1147    0.6173 N   0  0  0  0  0  0
    2.6666    3.2897    1.4184 C   0  0  0  0  0  0
    1.5739    4.3099    1.6592 C   0  0  0  0  0  0
    2.0316    3.4285    2.7911 C   0  0  0  0  0  0
    4.0542    3.7658    1.2781 C   0  0  0  0  0  0
    5.1438    4.1394    1.1677 N   0  0  0  0  0  0
   -2.3225   -0.8674    1.2518 H   0  0  0  0  0  0
   -1.1365   -1.9231    2.0091 H   0  0  0  0  0  0
   -1.5238   -2.1124    0.3001 H   0  0  0  0  0  0
    1.3880   -1.6100    1.4339 H   0  0  0  0  0  0
    0.9091   -1.9262   -0.1980 H   0  0  0  0  0  0
    1.9299    0.2177   -0.9581 H   0  0  0  0  0  0
    4.1827   -1.0353    0.3282 H   0  0  0  0  0  0
    6.5559   -3.0734   -0.6062 H   0  0  0  0  0  0
    5.5477   -2.1937    0.4673 H   0  0  0  0  0  0
    5.4516   -4.6412    0.9972 H   0  0  0  0  0  0
    3.9016   -4.2269    0.5392 H   0  0  0  0  0  0
    4.6437   -5.4635   -3.1500 H   0  0  0  0  0  0
    3.3421   -4.7718   -2.3599 H   0  0  0  0  0  0
    6.1092   -3.4477   -2.8011 H   0  0  0  0  0  0
    4.6709   -2.9628   -3.6081 H   0  0  0  0  0  0
    5.2820   -6.9552    1.2960 H   0  0  0  0  0  0
    5.0978   -8.3912    0.3101 H   0  0  0  0  0  0
    7.3537   -7.5553   -0.2748 H   0  0  0  0  0  0
    4.7849   -8.7500   -2.0868 H   0  0  0  0  0  0
    3.1991   -9.8616   -3.6021 H   0  0  0  0  0  0
    0.8665   -9.0622   -3.7531 H   0  0  0  0  0  0
    0.1187   -7.1327   -2.4021 H   0  0  0  0  0  0
    1.6970   -6.0145   -0.8764 H   0  0  0  0  0  0
    1.9085    2.2813   -0.2806 H   0  0  0  0  0  0
    1.8382    5.3675    1.6810 H   0  0  0  0  0  0
    0.5822    4.1374    1.2395 H   0  0  0  0  0  0
    2.6139    3.8748    3.5977 H   0  0  0  0  0  0
    1.3574    2.6488    3.1477 H   0  0  0  0  0  0
  1  2  1  0  0  0
  1 35  1  0  0  0
  1 36  1  0  0  0
  1 37  1  0  0  0
  2  3  1  0  0  0
  2  4  1  0  0  0
  2  5  1  0  0  0
  5  6  1  0  0  0
  5 38  1  0  0  0
  5 39  1  0  0  0
  6  7  1  0  0  0
  6 27  1  0  0  0
  6 40  1  0  0  0
  7  8  1  0  0  0
  7 41  1  0  0  0
  8  9  2  0  0  0
  8 10  1  0  0  0
 10 11  1  0  0  0
 10 15  1  0  0  0
 11 12  1  0  0  0
 11 42  1  0  0  0
 11 43  1  0  0  0
 12 13  1  0  0  0
 12 44  1  0  0  0
 12 45  1  0  0  0
 13 14  1  0  0  0
 13 16  1  0  0  0
 13 19  1  0  0  0
 14 15  1  0  0  0
 14 46  1  0  0  0
 14 47  1  0  0  0
 15 48  1  0  0  0
 15 49  1  0  0  0
 16 17  1  0  0  0
 16 21  1  0  0  0
 17 18  1  0  0  0
 17 50  1  0  0  0
 17 51  1  0  0  0
 18 19  1  0  0  0
 18 52  1  0  0  0
 19 20  2  0  0  0
 21 22  2  0  0  0
 21 26  1  0  0  0
 22 23  1  0  0  0
 22 53  1  0  0  0
 23 24  2  0  0  0
 23 54  1  0  0  0
 24 25  1  0  0  0
 24 55  1  0  0  0
 25 26  2  0  0  0
 25 56  1  0  0  0
 26 57  1  0  0  0
 27 28  2  0  0  0
 27 29  1  0  0  0
 29 30  1  0  0  0
 29 58  1  0  0  0
 30 31  1  0  0  0
 30 32  1  0  0  0
 30 33  1  0  0  0
 31 32  1  0  0  0
 31 59  1  0  0  0
 31 60  1  0  0  0
 32 61  1  0  0  0
 32 62  1  0  0  0
 33 34  3  0  0  0
M  END
> <chembl_id>
CHEMBL3640710

> <chembl_pref_name>
None

> <i_m_ct_stereo_status>
1

> <s_m_source_file>
sdf/inactives_sanitized.sdf

> <i_m_source_file_index>
427

> <i_lp_mmshare_version>
49012

> <i_f3d_flags>
0

> <s_epik_input>
W0NIMl0xW0NIMl1DMShDI04pW05IXUMoPU8pW0NASF0oW0NIMl1DKEYpKEYpW0NIM10pW05IXUMoPU8pTihbQ0gyXVtDSDJdMilbQ0gyXVtDSDJdQzIzTihbQ0gyXVtOSF1DMz1PKWM0W2NIXVtjSF1bY0hdW2NIXVtjSF00

> <s_epik_cmdline>
J2VwaWtfcHl0aG9uJywgJy1waHQnLCAnMC41JywgJy1waCcsICc3LjUnLCAnLW50JywgJy1tYScsICcyMDAnLCAnLWltYWUnLCAnPGluZmlsZS5tYWU+JywgJy1vbWFlJywgJzxvdXRmaWxlLm1hZT4n

> <r_lp_tautomer_probability>
1

> <r_epik_Ionization_Penalty>
  0.0000

> <r_epik_Ionization_Penalty_Charging>
  0.0000

> <r_epik_Ionization_Penalty_Neutral>
  0.0000

> <r_epik_State_Penalty>
 -0.0000

> <r_epik_Charging_Adjusted_Penalty>
0

> <i_epik_Tot_Q>
0

> <i_epik_Tot_abs_Q>
0

> <s_epik_Chemistry_Notes>
This compound contains an acetal/aminal-like group ( X-CH(R)-Y where X, Y are N, S, or O) that may be acid/base labile, releasing an aldehyde.

> <s_lp_Force_Field>
OPLS3e

> <r_lp_Energy>
39.746531

> <b_lp_Chiralities_Consistent>
1

> <s_lp_Variant>
sdf/inactives_sanitized.sdf:427-1

$$$$
sdf/inactives_sanitized.sdf:428
                    3D
 Schrodinger Suite 2020-1.
 58 62  0  0  1  0            999 V2000
    0.5321    2.4484   -4.6065 F   0  0  0  0  0  0
   -0.3800    2.3523   -3.6382 C   0  0  1  0  0  0
    0.1273    1.4521   -2.5131 C   0  0  0  0  0  0
   -0.4825    2.0327   -1.3010 N   0  0  0  0  0  0
   -1.0616    3.3743   -1.5533 C   0  0  1  0  0  0
   -0.6066    3.7025   -2.9718 C   0  0  2  0  0  0
   -1.6198    4.5098   -3.5507 O   0  0  0  0  0  0
   -2.8743    4.1262   -3.0119 C   0  0  0  0  0  0
   -2.5828    3.5429   -1.6378 C   0  0  0  0  0  0
   -3.4173    3.2241   -0.7931 O   0  0  0  0  0  0
   -0.7276    1.3165   -0.1673 C   0  0  0  0  0  0
   -1.3482    1.7900    0.7872 O   0  0  0  0  0  0
   -0.1480   -0.1224   -0.0230 C   0  0  1  0  0  0
    1.3179   -0.0271    0.0012 N   0  0  0  0  0  0
    2.1755   -0.7015   -0.7895 C   0  0  0  0  0  0
    1.8094   -1.4968   -1.6574 O   0  0  0  0  0  0
    3.6433   -0.4029   -0.5837 C   0  0  0  0  0  0
    4.1276    0.0972    0.6363 C   0  0  0  0  0  0
    5.4853    0.3611    0.8082 C   0  0  0  0  0  0
    6.3814    0.1291   -0.2326 C   0  0  0  0  0  0
    5.9241   -0.3704   -1.4575 C   0  0  0  0  0  0
    4.5565   -0.6361   -1.6231 C   0  0  0  0  0  0
    6.8403   -0.6034   -2.5090 N   0  0  0  0  0  0
    8.1798   -0.9188   -2.4432 C   0  0  0  0  0  0
    8.6918   -1.0560   -3.6394 N   0  0  0  0  0  0
    7.6361   -0.8192   -4.5131 N   0  0  0  0  0  0
    6.4841   -0.5388   -3.8024 N   0  0  0  0  0  0
   -0.7244   -0.9432    1.1842 C   0  0  0  0  0  0
   -0.0138   -2.2983    1.4357 C   0  0  0  0  0  0
   -0.4655   -2.8794    2.7931 C   0  0  0  0  0  0
   -2.0043   -3.0606    2.8400 C   0  0  0  0  0  0
   -2.7844   -1.8091    2.3630 C   0  0  0  0  0  0
   -2.2256   -1.2932    1.0207 C   0  0  0  0  0  0
   -1.2999    1.9545   -4.0693 H   0  0  0  0  0  0
   -0.1867    0.4319   -2.7344 H   0  0  0  0  0  0
    1.2124    1.5564   -2.4711 H   0  0  0  0  0  0
   -0.6632    4.1009   -0.8440 H   0  0  0  0  0  0
    0.3278    4.2670   -2.9423 H   0  0  0  0  0  0
   -3.5478    4.9814   -2.9530 H   0  0  0  0  0  0
   -3.3346    3.3670   -3.6447 H   0  0  0  0  0  0
   -0.4629   -0.6741   -0.9097 H   0  0  0  0  0  0
    1.6927    0.6178    0.6814 H   0  0  0  0  0  0
    3.4615    0.2818    1.4670 H   0  0  0  0  0  0
    5.8442    0.7458    1.7515 H   0  0  0  0  0  0
    7.4282    0.3470   -0.0781 H   0  0  0  0  0  0
    4.2021   -1.0261   -2.5677 H   0  0  0  0  0  0
    8.6855   -1.0321   -1.4957 H   0  0  0  0  0  0
   -0.5781   -0.3245    2.0733 H   0  0  0  0  0  0
   -0.1626   -2.9880    0.6029 H   0  0  0  0  0  0
    1.0661   -2.1600    1.4797 H   0  0  0  0  0  0
    0.0271   -3.8356    2.9734 H   0  0  0  0  0  0
   -0.1505   -2.2167    3.6008 H   0  0  0  0  0  0
   -2.2769   -3.9054    2.2054 H   0  0  0  0  0  0
   -2.3166   -3.3315    3.8493 H   0  0  0  0  0  0
   -3.8441   -2.0465    2.2621 H   0  0  0  0  0  0
   -2.7177   -1.0236    3.1176 H   0  0  0  0  0  0
   -2.3875   -1.9884    0.1950 H   0  0  0  0  0  0
   -2.7939   -0.4068    0.7396 H   0  0  0  0  0  0
  1  2  1  0  0  0
  2  3  1  0  0  0
  2  6  1  0  0  0
  2 34  1  0  0  0
  3  4  1  0  0  0
  3 35  1  0  0  0
  3 36  1  0  0  0
  4  5  1  0  0  0
  4 11  1  0  0  0
  5  6  1  0  0  0
  5  9  1  0  0  0
  5 37  1  0  0  0
  6  7  1  0  0  0
  6 38  1  0  0  0
  7  8  1  0  0  0
  8  9  1  0  0  0
  8 39  1  0  0  0
  8 40  1  0  0  0
  9 10  2  0  0  0
 11 12  2  0  0  0
 11 13  1  0  0  0
 13 14  1  0  0  0
 13 28  1  0  0  0
 13 41  1  0  0  0
 14 15  1  0  0  0
 14 42  1  0  0  0
 15 16  2  0  0  0
 15 17  1  0  0  0
 17 18  2  0  0  0
 17 22  1  0  0  0
 18 19  1  0  0  0
 18 43  1  0  0  0
 19 20  2  0  0  0
 19 44  1  0  0  0
 20 21  1  0  0  0
 20 45  1  0  0  0
 21 22  2  0  0  0
 21 23  1  0  0  0
 22 46  1  0  0  0
 23 24  1  0  0  0
 23 27  1  0  0  0
 24 25  2  0  0  0
 24 47  1  0  0  0
 25 26  1  0  0  0
 26 27  2  0  0  0
 28 29  1  0  0  0
 28 33  1  0  0  0
 28 48  1  0  0  0
 29 30  1  0  0  0
 29 49  1  0  0  0
 29 50  1  0  0  0
 30 31  1  0  0  0
 30 51  1  0  0  0
 30 52  1  0  0  0
 31 32  1  0  0  0
 31 53  1  0  0  0
 31 54  1  0  0  0
 32 33  1  0  0  0
 32 55  1  0  0  0
 32 56  1  0  0  0
 33 57  1  0  0  0
 33 58  1  0  0  0
M  END
> <chembl_id>
CHEMBL3648404

> <chembl_pref_name>
None

> <i_m_ct_stereo_status>
1

> <s_m_source_file>
sdf/inactives_sanitized.sdf

> <i_m_source_file_index>
428

> <i_lp_mmshare_version>
49012

> <i_f3d_flags>
0

> <s_epik_input>
Tz1DMVtDSDJdT1tDQEBIXShbQ0BASF0xMilbQ0BASF0oRilbQ0gyXU4yQyg9TylbQ0BIXShbQ0hdM1tDSDJdW0NIMl1bQ0gyXVtDSDJdW0NIMl0zKVtOSF1DKD1PKWM0W2NIXVtjSF1bY0hdYyhbY0hdNCktbjVbY0hdbm5uNQ==

> <s_epik_cmdline>
J2VwaWtfcHl0aG9uJywgJy1waHQnLCAnMC41JywgJy1waCcsICc3LjUnLCAnLW50JywgJy1tYScsICcyMDAnLCAnLWltYWUnLCAnPGluZmlsZS5tYWU+JywgJy1vbWFlJywgJzxvdXRmaWxlLm1hZT4n

> <r_lp_tautomer_probability>
1

> <r_epik_Ionization_Penalty>
  0.0000

> <r_epik_Ionization_Penalty_Charging>
  0.0000

> <r_epik_Ionization_Penalty_Neutral>
  0.0000

> <r_epik_State_Penalty>
 -0.0000

> <r_epik_Charging_Adjusted_Penalty>
0

> <i_epik_Tot_Q>
0

> <i_epik_Tot_abs_Q>
0

> <s_lp_Force_Field>
OPLS3e

> <r_lp_Energy>
34.406676

> <b_lp_Chiralities_Consistent>
1

> <s_lp_Variant>
sdf/inactives_sanitized.sdf:428-1

$$$$
sdf/inactives_sanitized.sdf:429
                    3D
 Schrodinger Suite 2020-1.
 56 59  0  0  1  0            999 V2000
   -4.4215   -1.2020   -0.0554 C   0  0  0  0  0  0
   -2.9001   -1.3960    0.0575 C   0  0  2  0  0  0
   -2.3054   -0.6635    1.2920 C   0  0  0  0  0  0
   -0.7735   -0.8456    1.3598 C   0  0  0  0  0  0
   -0.1252   -0.2794    0.0698 C   0  0  2  0  0  0
   -0.6344   -1.1721   -1.0919 C   0  0  0  0  0  0
   -2.1596   -0.9950   -1.2477 C   0  0  0  0  0  0
    1.4340   -0.1867    0.1451 C   0  0  2  0  0  0
    1.8735    0.5595    1.3318 N   0  0  0  0  0  0
    3.1108    0.5508    1.8669 C   0  0  0  0  0  0
    4.0327   -0.1314    1.4141 O   0  0  0  0  0  0
    3.3139    1.4053    3.0991 C   0  0  0  0  0  0
    4.3865    1.1343    3.9615 C   0  0  0  0  0  0
    4.5923    1.9086    5.1002 C   0  0  0  0  0  0
    3.7292    2.9629    5.3834 C   0  0  0  0  0  0
    2.6630    3.2512    4.5363 C   0  0  0  0  0  0
    2.4556    2.4770    3.3976 C   0  0  0  0  0  0
    2.0388    0.4727   -1.1288 C   0  0  0  0  0  0
    1.6745    1.6210   -1.3953 O   0  0  0  0  0  0
    2.9102   -0.2203   -1.9113 N   0  0  0  0  0  0
    3.3412   -1.6005   -1.6488 C   0  0  0  0  0  0
    4.5008   -1.8127   -2.6173 C   0  0  2  0  0  0
    5.6144   -1.3598   -2.0352 F   0  0  0  0  0  0
    4.1909   -0.9154   -3.8048 C   0  0  1  0  0  0
    3.3873   -1.5793   -4.7685 O   0  0  0  0  0  0
    2.6494   -0.5787   -5.4424 C   0  0  0  0  0  0
    2.2685    0.4013   -4.3499 C   0  0  0  0  0  0
    1.2919    1.1481   -4.3412 O   0  0  0  0  0  0
    3.3293    0.2332   -3.2582 C   0  0  1  0  0  0
   -4.6797   -0.1511   -0.1923 H   0  0  0  0  0  0
   -4.9316   -1.5549    0.8415 H   0  0  0  0  0  0
   -4.8287   -1.7563   -0.9017 H   0  0  0  0  0  0
   -2.6998   -2.4588    0.2069 H   0  0  0  0  0  0
   -2.5475    0.3995    1.2404 H   0  0  0  0  0  0
   -2.7810   -1.0187    2.2072 H   0  0  0  0  0  0
   -0.4041   -0.3131    2.2365 H   0  0  0  0  0  0
   -0.4757   -1.8815    1.5310 H   0  0  0  0  0  0
   -0.4896    0.7419   -0.0707 H   0  0  0  0  0  0
   -0.1601   -0.8827   -2.0300 H   0  0  0  0  0  0
   -0.3381   -2.2130   -0.9524 H   0  0  0  0  0  0
   -2.3873    0.0429   -1.4974 H   0  0  0  0  0  0
   -2.5352   -1.5783   -2.0895 H   0  0  0  0  0  0
    1.7902   -1.2070    0.2785 H   0  0  0  0  0  0
    1.1691    1.1449    1.7558 H   0  0  0  0  0  0
    5.0674    0.3193    3.7600 H   0  0  0  0  0  0
    5.4190    1.6917    5.7607 H   0  0  0  0  0  0
    3.8895    3.5641    6.2663 H   0  0  0  0  0  0
    1.9999    4.0739    4.7601 H   0  0  0  0  0  0
    1.6251    2.7267    2.7527 H   0  0  0  0  0  0
    3.6546   -1.7643   -0.6175 H   0  0  0  0  0  0
    2.5203   -2.2833   -1.8721 H   0  0  0  0  0  0
    4.6602   -2.8580   -2.8843 H   0  0  0  0  0  0
    5.1103   -0.5711   -4.2844 H   0  0  0  0  0  0
    3.2698   -0.0874   -6.1928 H   0  0  0  0  0  0
    1.7735   -1.0021   -5.9341 H   0  0  0  0  0  0
    3.9209    1.1447   -3.1634 H   0  0  0  0  0  0
  1  2  1  0  0  0
  1 30  1  0  0  0
  1 31  1  0  0  0
  1 32  1  0  0  0
  2  3  1  0  0  0
  2  7  1  0  0  0
  2 33  1  0  0  0
  3  4  1  0  0  0
  3 34  1  0  0  0
  3 35  1  0  0  0
  4  5  1  0  0  0
  4 36  1  0  0  0
  4 37  1  0  0  0
  5  6  1  0  0  0
  5  8  1  0  0  0
  5 38  1  0  0  0
  6  7  1  0  0  0
  6 39  1  0  0  0
  6 40  1  0  0  0
  7 41  1  0  0  0
  7 42  1  0  0  0
  8  9  1  0  0  0
  8 18  1  0  0  0
  8 43  1  0  0  0
  9 10  1  0  0  0
  9 44  1  0  0  0
 10 11  2  0  0  0
 10 12  1  0  0  0
 12 13  2  0  0  0
 12 17  1  0  0  0
 13 14  1  0  0  0
 13 45  1  0  0  0
 14 15  2  0  0  0
 14 46  1  0  0  0
 15 16  1  0  0  0
 15 47  1  0  0  0
 16 17  2  0  0  0
 16 48  1  0  0  0
 17 49  1  0  0  0
 18 19  2  0  0  0
 18 20  1  0  0  0
 20 21  1  0  0  0
 20 29  1  0  0  0
 21 22  1  0  0  0
 21 50  1  0  0  0
 21 51  1  0  0  0
 22 23  1  0  0  0
 22 24  1  0  0  0
 22 52  1  0  0  0
 24 25  1  0  0  0
 24 29  1  0  0  0
 24 53  1  0  0  0
 25 26  1  0  0  0
 26 27  1  0  0  0
 26 54  1  0  0  0
 26 55  1  0  0  0
 27 28  2  0  0  0
 27 29  1  0  0  0
 29 56  1  0  0  0
M  END
> <chembl_id>
CHEMBL3648400

> <chembl_pref_name>
None

> <i_m_ct_stereo_status>
1

> <s_m_source_file>
sdf/inactives_sanitized.sdf

> <i_m_source_file_index>
429

> <i_lp_mmshare_version>
49012

> <i_f3d_flags>
0

> <s_epik_input>
TzFbQ0gyXUMoPU8pW0NASF0oW0NASF0xMilOKFtDSDJdW0NAQEhdMkYpQyg9TylbQ0BIXShbQ0BASF0oW0NIMl1bQ0gyXTMpW0NIMl1bQ0gyXVtDQEhdM1tDSDNdKVtOSF1DKD1PKWM0W2NIXVtjSF1bY0hdW2NIXVtjSF00

> <s_epik_cmdline>
J2VwaWtfcHl0aG9uJywgJy1waHQnLCAnMC41JywgJy1waCcsICc3LjUnLCAnLW50JywgJy1tYScsICcyMDAnLCAnLWltYWUnLCAnPGluZmlsZS5tYWU+JywgJy1vbWFlJywgJzxvdXRmaWxlLm1hZT4n

> <r_lp_tautomer_probability>
1

> <r_epik_Ionization_Penalty>
  0.0000

> <r_epik_Ionization_Penalty_Charging>
  0.0000

> <r_epik_Ionization_Penalty_Neutral>
  0.0000

> <r_epik_State_Penalty>
 -0.0000

> <r_epik_Charging_Adjusted_Penalty>
0

> <i_epik_Tot_Q>
0

> <i_epik_Tot_abs_Q>
0

> <s_lp_Force_Field>
OPLS3e

> <r_lp_Energy>
26.814414

> <b_lp_Chiralities_Consistent>
1

> <s_lp_Variant>
sdf/inactives_sanitized.sdf:429-1

$$$$
sdf/inactives_sanitized.sdf:430
                    3D
 Schrodinger Suite 2020-1.
 62 64  0  0  1  0            999 V2000
   -2.4355   -2.3441    2.3980 C   0  0  0  0  0  0
   -1.5597   -2.1678    1.1479 C   0  0  0  0  0  0
   -0.7258   -3.2050    1.0587 F   0  0  0  0  0  0
   -2.3347   -2.2021    0.0630 F   0  0  0  0  0  0
   -0.7771   -0.8334    1.2042 C   0  0  0  0  0  0
    0.0528   -0.4925   -0.0634 C   0  0  2  0  0  0
    1.0710   -1.5100   -0.3504 N   0  0  0  0  0  0
    1.8478   -1.5733   -1.4521 C   0  0  0  0  0  0
    1.6307   -0.8661   -2.4403 O   0  0  0  0  0  0
    2.7936   -2.5568   -1.4325 N   0  0  0  0  0  0
    3.4500   -2.9765   -0.1743 C   0  0  0  0  0  0
    4.6069   -1.9832    0.1005 C   0  0  0  0  0  0
    5.6203   -1.9083   -1.0810 C   0  0  0  0  0  0
    4.8677   -1.7270   -2.4248 C   0  0  0  0  0  0
    3.6844   -2.7165   -2.5990 C   0  0  0  0  0  0
    6.4438   -3.2125   -1.1794 N   0  3  0  0  0  0
    7.5097   -3.3718   -0.0778 C   0  0  0  0  0  0
    8.3818   -2.0923    0.0455 C   0  0  0  0  0  0
    9.1993   -2.1913    1.3513 C   0  0  0  0  0  0
    9.2813   -1.9614   -1.2079 C   0  0  0  0  0  0
    7.4505   -0.8527    0.1298 C   0  0  0  0  0  0
    6.5365   -0.8166   -0.9652 O   0  0  0  0  0  0
    0.6886    0.9095    0.0741 C   0  0  0  0  0  0
    1.6414    1.0771    0.8380 O   0  0  0  0  0  0
    0.1280    1.8937   -0.6476 N   0  0  0  0  0  0
    0.5674    3.2843   -0.5980 C   0  0  0  0  0  0
    1.9405    3.6232   -1.1506 C   0  0  0  0  0  0
    0.7040    4.0346   -1.9058 C   0  0  0  0  0  0
    0.1270    4.0303    0.5944 C   0  0  0  0  0  0
   -0.2194    4.6156    1.5305 N   0  0  0  0  0  0
   -2.9810   -3.2878    2.3641 H   0  0  0  0  0  0
   -3.1712   -1.5436    2.4851 H   0  0  0  0  0  0
   -1.8343   -2.3444    3.3079 H   0  0  0  0  0  0
   -1.4928   -0.0283    1.3846 H   0  0  0  0  0  0
   -0.1212   -0.8526    2.0775 H   0  0  0  0  0  0
   -0.6399   -0.4788   -0.9081 H   0  0  0  0  0  0
    1.2310   -2.1754    0.3914 H   0  0  0  0  0  0
    2.7486   -3.1041    0.6513 H   0  0  0  0  0  0
    3.8417   -3.9816   -0.3354 H   0  0  0  0  0  0
    4.1924   -0.9922    0.2950 H   0  0  0  0  0  0
    5.1009   -2.2665    1.0289 H   0  0  0  0  0  0
    4.4922   -0.7048   -2.5034 H   0  0  0  0  0  0
    5.5583   -1.8363   -3.2624 H   0  0  0  0  0  0
    3.1462   -2.6243   -3.5440 H   0  0  0  0  0  0
    4.0413   -3.7473   -2.5964 H   0  0  0  0  0  0
    5.8207   -4.0070   -1.1704 H   0  0  0  0  0  0
    6.9387   -3.5791    0.8280 H   0  0  0  0  0  0
    8.0817   -4.2644   -0.3352 H   0  0  0  0  0  0
    9.8184   -1.3056    1.5008 H   0  0  0  0  0  0
    9.8679   -3.0534    1.3371 H   0  0  0  0  0  0
    8.5577   -2.2907    2.2283 H   0  0  0  0  0  0
    9.9143   -1.0750   -1.1489 H   0  0  0  0  0  0
    8.7023   -1.8822   -2.1288 H   0  0  0  0  0  0
    9.9435   -2.8218   -1.3129 H   0  0  0  0  0  0
    6.9156   -0.8127    1.0800 H   0  0  0  0  0  0
    8.0413    0.0640    0.1008 H   0  0  0  0  0  0
   -0.7015    1.6963   -1.1885 H   0  0  0  0  0  0
    2.5316    4.3938   -0.6547 H   0  0  0  0  0  0
    2.5599    2.8257   -1.5630 H   0  0  0  0  0  0
    0.4379    5.0916   -1.9348 H   0  0  0  0  0  0
    0.4716    3.5214   -2.8396 H   0  0  0  0  0  0
    6.9122   -3.2165   -2.0742 H   0  0  0  0  0  0
  1  2  1  0  0  0
  1 31  1  0  0  0
  1 32  1  0  0  0
  1 33  1  0  0  0
  2  3  1  0  0  0
  2  4  1  0  0  0
  2  5  1  0  0  0
  5  6  1  0  0  0
  5 34  1  0  0  0
  5 35  1  0  0  0
  6  7  1  0  0  0
  6 23  1  0  0  0
  6 36  1  0  0  0
  7  8  1  0  0  0
  7 37  1  0  0  0
  8  9  2  0  0  0
  8 10  1  0  0  0
 10 11  1  0  0  0
 10 15  1  0  0  0
 11 12  1  0  0  0
 11 38  1  0  0  0
 11 39  1  0  0  0
 12 13  1  0  0  0
 12 40  1  0  0  0
 12 41  1  0  0  0
 13 14  1  0  0  0
 13 16  1  0  0  0
 13 22  1  0  0  0
 14 15  1  0  0  0
 14 42  1  0  0  0
 14 43  1  0  0  0
 15 44  1  0  0  0
 15 45  1  0  0  0
 16 17  1  0  0  0
 16 46  1  0  0  0
 16 62  1  0  0  0
 17 18  1  0  0  0
 17 47  1  0  0  0
 17 48  1  0  0  0
 18 19  1  0  0  0
 18 20  1  0  0  0
 18 21  1  0  0  0
 19 49  1  0  0  0
 19 50  1  0  0  0
 19 51  1  0  0  0
 20 52  1  0  0  0
 20 53  1  0  0  0
 20 54  1  0  0  0
 21 22  1  0  0  0
 21 55  1  0  0  0
 21 56  1  0  0  0
 23 24  2  0  0  0
 23 25  1  0  0  0
 25 26  1  0  0  0
 25 57  1  0  0  0
 26 27  1  0  0  0
 26 28  1  0  0  0
 26 29  1  0  0  0
 27 28  1  0  0  0
 27 58  1  0  0  0
 27 59  1  0  0  0
 28 60  1  0  0  0
 28 61  1  0  0  0
 29 30  3  0  0  0
M  CHG  1  16   1
M  END
> <chembl_id>
CHEMBL3640711

> <chembl_pref_name>
None

> <i_m_ct_stereo_status>
1

> <s_m_source_file>
sdf/inactives_sanitized.sdf

> <i_m_source_file_index>
430

> <i_lp_mmshare_version>
49012

> <i_f3d_flags>
0

> <s_epik_input>
W0NIMl0xW0NIMl1DMShDI04pW05IXUMoPU8pW0NASF0oW0NIMl1DKEYpKEYpW0NIM10pW05IXUMoPU8pTihbQ0gyXVtDSDJdMilbQ0gyXVtDSDJdQzIzW05IXVtDSDJdQyhbQ0gzXSkoW0NIM10pW0NIMl1PMw==

> <s_epik_cmdline>
J2VwaWtfcHl0aG9uJywgJy1waHQnLCAnMC41JywgJy1waCcsICc3LjUnLCAnLW50JywgJy1tYScsICcyMDAnLCAnLWltYWUnLCAnPGluZmlsZS5tYWU+JywgJy1vbWFlJywgJzxvdXRmaWxlLm1hZT4n

> <r_epik_Ionization_Penalty>
  0.2983

> <r_epik_Ionization_Penalty_Charging>
  0.2983

> <r_epik_Ionization_Penalty_Neutral>
  0.0000

> <r_epik_State_Penalty>
  0.2916

> <r_epik_Charging_Adjusted_Penalty>
0.589900461899499

> <i_epik_Tot_Q>
1

> <i_epik_Tot_abs_Q>
1

> <s_lp_Force_Field>
OPLS3e

> <r_lp_Energy>
23.518783

> <b_lp_Chiralities_Consistent>
1

> <s_lp_Variant>
sdf/inactives_sanitized.sdf:430-1

$$$$
sdf/inactives_sanitized.sdf:430
                    3D
 Schrodinger Suite 2020-1.
 61 63  0  0  1  0            999 V2000
   -2.9515   -0.7092    3.2607 C   0  0  0  0  0  0
   -2.4525   -0.3172    1.8614 C   0  0  0  0  0  0
   -3.0111   -1.1226    0.9570 F   0  0  0  0  0  0
   -2.8750    0.9177    1.5893 F   0  0  0  0  0  0
   -0.9080   -0.4138    1.7794 C   0  0  0  0  0  0
   -0.2762   -0.1891    0.3780 C   0  0  2  0  0  0
    1.1496   -0.5330    0.3883 N   0  0  0  0  0  0
    1.9231   -0.7603   -0.6941 C   0  0  0  0  0  0
    1.4705   -0.6998   -1.8411 O   0  0  0  0  0  0
    3.2513   -0.9189   -0.4257 N   0  0  0  0  0  0
    3.7328   -1.5410    0.8241 C   0  0  0  0  0  0
    3.7252   -3.0775    0.6173 C   0  0  0  0  0  0
    4.6080   -3.4942   -0.5781 C   0  0  0  0  0  0
    4.2173   -2.6681   -1.8370 C   0  0  0  0  0  0
    4.1933   -1.1461   -1.5360 C   0  0  0  0  0  0
    4.4542   -4.9306   -0.7964 N   0  0  2  0  0  0
    5.4319   -5.4882   -1.7248 C   0  0  0  0  0  0
    6.8755   -5.1941   -1.2415 C   0  0  0  0  0  0
    7.1499   -5.8997    0.1110 C   0  0  0  0  0  0
    7.8564   -5.6075   -2.3587 C   0  0  0  0  0  0
    6.9826   -3.6593   -1.0237 C   0  0  0  0  0  0
    5.9254   -3.1399   -0.2009 O   0  0  0  0  0  0
   -0.4827    1.2499   -0.1443 C   0  0  0  0  0  0
    0.0397    2.1961    0.4472 O   0  0  0  0  0  0
   -1.2724    1.3848   -1.2220 N   0  0  0  0  0  0
   -1.6467    2.6719   -1.7979 C   0  0  0  0  0  0
   -0.5620    3.5196   -2.4387 C   0  0  0  0  0  0
   -1.5794    2.8217   -3.3029 C   0  0  0  0  0  0
   -2.7055    3.3904   -1.0663 C   0  0  0  0  0  0
   -3.5370    3.9539   -0.4915 N   0  0  0  0  0  0
   -4.0389   -0.6506    3.3193 H   0  0  0  0  0  0
   -2.5456   -0.0475    4.0267 H   0  0  0  0  0  0
   -2.6642   -1.7299    3.5149 H   0  0  0  0  0  0
   -0.4608    0.2740    2.4999 H   0  0  0  0  0  0
   -0.6157   -1.4082    2.1224 H   0  0  0  0  0  0
   -0.7575   -0.8915   -0.3068 H   0  0  0  0  0  0
    1.5702   -0.5990    1.3034 H   0  0  0  0  0  0
    4.7460   -1.1849    1.0163 H   0  0  0  0  0  0
    3.1795   -1.2024    1.7007 H   0  0  0  0  0  0
    4.0902   -3.5774    1.5162 H   0  0  0  0  0  0
    2.7050   -3.4310    0.4522 H   0  0  0  0  0  0
    4.9082   -2.8662   -2.6547 H   0  0  0  0  0  0
    3.2353   -2.9985   -2.1812 H   0  0  0  0  0  0
    5.1809   -0.8000   -1.2283 H   0  0  0  0  0  0
    3.9589   -0.5214   -2.3994 H   0  0  0  0  0  0
    3.5176   -5.1372   -1.1119 H   0  0  0  0  0  0
    5.2628   -6.5619   -1.8141 H   0  0  0  0  0  0
    5.2508   -5.0489   -2.7062 H   0  0  0  0  0  0
    8.1708   -5.7200    0.4502 H   0  0  0  0  0  0
    7.0253   -6.9795    0.0236 H   0  0  0  0  0  0
    6.4836   -5.5583    0.9044 H   0  0  0  0  0  0
    8.8865   -5.3725   -2.0878 H   0  0  0  0  0  0
    7.6421   -5.0986   -3.2999 H   0  0  0  0  0  0
    7.8085   -6.6805   -2.5492 H   0  0  0  0  0  0
    7.9259   -3.4189   -0.5314 H   0  0  0  0  0  0
    7.0324   -3.1080   -1.9637 H   0  0  0  0  0  0
   -1.7239    0.5660   -1.6031 H   0  0  0  0  0  0
   -0.6157    4.6042   -2.3405 H   0  0  0  0  0  0
    0.4654    3.1530   -2.4446 H   0  0  0  0  0  0
   -2.3390    3.4218   -3.8049 H   0  0  0  0  0  0
   -1.2519    1.9747   -3.9070 H   0  0  0  0  0  0
  1  2  1  0  0  0
  1 31  1  0  0  0
  1 32  1  0  0  0
  1 33  1  0  0  0
  2  3  1  0  0  0
  2  4  1  0  0  0
  2  5  1  0  0  0
  5  6  1  0  0  0
  5 34  1  0  0  0
  5 35  1  0  0  0
  6  7  1  0  0  0
  6 23  1  0  0  0
  6 36  1  0  0  0
  7  8  1  0  0  0
  7 37  1  0  0  0
  8  9  2  0  0  0
  8 10  1  0  0  0
 10 11  1  0  0  0
 10 15  1  0  0  0
 11 12  1  0  0  0
 11 38  1  0  0  0
 11 39  1  0  0  0
 12 13  1  0  0  0
 12 40  1  0  0  0
 12 41  1  0  0  0
 13 14  1  0  0  0
 13 16  1  0  0  0
 13 22  1  0  0  0
 14 15  1  0  0  0
 14 42  1  0  0  0
 14 43  1  0  0  0
 15 44  1  0  0  0
 15 45  1  0  0  0
 16 17  1  0  0  0
 16 46  1  0  0  0
 17 18  1  0  0  0
 17 47  1  0  0  0
 17 48  1  0  0  0
 18 19  1  0  0  0
 18 20  1  0  0  0
 18 21  1  0  0  0
 19 49  1  0  0  0
 19 50  1  0  0  0
 19 51  1  0  0  0
 20 52  1  0  0  0
 20 53  1  0  0  0
 20 54  1  0  0  0
 21 22  1  0  0  0
 21 55  1  0  0  0
 21 56  1  0  0  0
 23 24  2  0  0  0
 23 25  1  0  0  0
 25 26  1  0  0  0
 25 57  1  0  0  0
 26 27  1  0  0  0
 26 28  1  0  0  0
 26 29  1  0  0  0
 27 28  1  0  0  0
 27 58  1  0  0  0
 27 59  1  0  0  0
 28 60  1  0  0  0
 28 61  1  0  0  0
 29 30  3  0  0  0
M  END
> <chembl_id>
CHEMBL3640711

> <chembl_pref_name>
None

> <i_m_ct_stereo_status>
1

> <s_m_source_file>
sdf/inactives_sanitized.sdf

> <i_m_source_file_index>
430

> <i_lp_mmshare_version>
49012

> <i_f3d_flags>
0

> <s_epik_input>
W0NIMl0xW0NIMl1DMShDI04pW05IXUMoPU8pW0NASF0oW0NIMl1DKEYpKEYpW0NIM10pW05IXUMoPU8pTihbQ0gyXVtDSDJdMilbQ0gyXVtDSDJdQzIzW05IXVtDSDJdQyhbQ0gzXSkoW0NIM10pW0NIMl1PMw==

> <s_epik_cmdline>
J2VwaWtfcHl0aG9uJywgJy1waHQnLCAnMC41JywgJy1waCcsICc3LjUnLCAnLW50JywgJy1tYScsICcyMDAnLCAnLWltYWUnLCAnPGluZmlsZS5tYWU+JywgJy1vbWFlJywgJzxvdXRmaWxlLm1hZT4n

> <r_epik_Ionization_Penalty>
  0.5496

> <r_epik_Ionization_Penalty_Charging>
  0.0000

> <r_epik_Ionization_Penalty_Neutral>
  0.5496

> <r_epik_State_Penalty>
  0.5598

> <r_epik_Charging_Adjusted_Penalty>
0.55980042751647

> <i_epik_Tot_Q>
0

> <i_epik_Tot_abs_Q>
0

> <s_lp_Force_Field>
OPLS3e

> <r_lp_Energy>
30.788971

> <b_lp_Chiralities_Consistent>
1

> <s_lp_Variant>
sdf/inactives_sanitized.sdf:430-2

$$$$
sdf/inactives_sanitized.sdf:431
                    3D
 Schrodinger Suite 2020-1.
 56 59  0  0  1  0            999 V2000
   -0.6800    2.0774    0.5741 O   0  0  0  0  0  0
   -1.0186    0.9304    0.2734 C   0  0  0  0  0  0
   -0.1376   -0.0453   -0.0187 N   0  0  0  0  0  0
    1.3209    0.0775   -0.0146 C   0  0  1  0  0  0
    1.9330   -0.5966    1.2467 C   0  0  0  0  0  0
    3.4840   -0.6325    1.3432 C   0  0  0  0  0  0
    3.9419   -1.2595    2.6805 C   0  0  0  0  0  0
    5.4761   -1.4037    2.7420 C   0  0  0  0  0  0
    6.1821   -0.0507    2.5087 C   0  0  0  0  0  0
    5.6849    0.6600    1.2314 C   0  0  0  0  0  0
    4.1462    0.7604    1.1970 C   0  0  0  0  0  0
    1.8469   -0.5065   -1.3507 C   0  0  0  0  0  0
    2.0316   -1.7247   -1.4120 O   0  0  0  0  0  0
    2.0809    0.3250   -2.4012 N   0  0  0  0  0  0
    1.8712    1.7760   -2.3633 C   0  0  0  0  0  0
    1.9757    2.1928   -3.8262 C   0  0  0  0  0  0
    2.9383    1.1970   -4.4543 C   0  0  1  0  0  0
    4.2919    1.6100   -4.3346 O   0  0  0  0  0  0
    5.0803    0.4361   -4.3179 C   0  0  0  0  0  0
    4.2783   -0.5329   -3.4732 C   0  0  0  0  0  0
    4.7195   -1.4576   -2.7932 O   0  0  0  0  0  0
    2.8213   -0.0848   -3.6139 C   0  0  1  0  0  0
   -2.4816    0.5556    0.1823 C   0  0  0  0  0  0
   -3.4441    1.5577   -0.0086 C   0  0  0  0  0  0
   -4.7956    1.2332   -0.0921 C   0  0  0  0  0  0
   -5.1951   -0.0956    0.0184 C   0  0  0  0  0  0
   -4.2546   -1.1030    0.2133 C   0  0  0  0  0  0
   -2.9029   -0.7798    0.2967 C   0  0  0  0  0  0
   -0.4901   -0.9563   -0.2736 H   0  0  0  0  0  0
    1.5897    1.1305    0.0554 H   0  0  0  0  0  0
    1.5382   -0.0947    2.1320 H   0  0  0  0  0  0
    1.5596   -1.6209    1.3101 H   0  0  0  0  0  0
    3.8711   -1.2623    0.5400 H   0  0  0  0  0  0
    3.5726   -0.6696    3.5211 H   0  0  0  0  0  0
    3.4790   -2.2395    2.8047 H   0  0  0  0  0  0
    5.7738   -1.8169    3.7064 H   0  0  0  0  0  0
    5.8050   -2.1209    1.9882 H   0  0  0  0  0  0
    6.0074    0.5970    3.3692 H   0  0  0  0  0  0
    7.2613   -0.1989    2.4556 H   0  0  0  0  0  0
    6.1248    1.6557    1.1652 H   0  0  0  0  0  0
    6.0323    0.1146    0.3523 H   0  0  0  0  0  0
    3.7836    1.4306    1.9782 H   0  0  0  0  0  0
    3.8433    1.2322    0.2626 H   0  0  0  0  0  0
    0.9045    2.0454   -1.9356 H   0  0  0  0  0  0
    2.6599    2.2376   -1.7672 H   0  0  0  0  0  0
    1.0011    2.1331   -4.3132 H   0  0  0  0  0  0
    2.3194    3.2248   -3.9037 H   0  0  0  0  0  0
    2.6741    1.0169   -5.4986 H   0  0  0  0  0  0
    5.2050    0.0444   -5.3282 H   0  0  0  0  0  0
    6.0646    0.6309   -3.8920 H   0  0  0  0  0  0
    2.2465   -0.8420   -4.1485 H   0  0  0  0  0  0
   -3.1543    2.5953   -0.0988 H   0  0  0  0  0  0
   -5.5309    2.0101   -0.2417 H   0  0  0  0  0  0
   -6.2436   -0.3469   -0.0460 H   0  0  0  0  0  0
   -4.5721   -2.1317    0.3014 H   0  0  0  0  0  0
   -2.1935   -1.5794    0.4568 H   0  0  0  0  0  0
  1  2  2  0  0  0
  2  3  1  0  0  0
  2 23  1  0  0  0
  3  4  1  0  0  0
  3 29  1  0  0  0
  4  5  1  0  0  0
  4 12  1  0  0  0
  4 30  1  0  0  0
  5  6  1  0  0  0
  5 31  1  0  0  0
  5 32  1  0  0  0
  6  7  1  0  0  0
  6 11  1  0  0  0
  6 33  1  0  0  0
  7  8  1  0  0  0
  7 34  1  0  0  0
  7 35  1  0  0  0
  8  9  1  0  0  0
  8 36  1  0  0  0
  8 37  1  0  0  0
  9 10  1  0  0  0
  9 38  1  0  0  0
  9 39  1  0  0  0
 10 11  1  0  0  0
 10 40  1  0  0  0
 10 41  1  0  0  0
 11 42  1  0  0  0
 11 43  1  0  0  0
 12 13  2  0  0  0
 12 14  1  0  0  0
 14 15  1  0  0  0
 14 22  1  0  0  0
 15 16  1  0  0  0
 15 44  1  0  0  0
 15 45  1  0  0  0
 16 17  1  0  0  0
 16 46  1  0  0  0
 16 47  1  0  0  0
 17 18  1  0  0  0
 17 22  1  0  0  0
 17 48  1  0  0  0
 18 19  1  0  0  0
 19 20  1  0  0  0
 19 49  1  0  0  0
 19 50  1  0  0  0
 20 21  2  0  0  0
 20 22  1  0  0  0
 22 51  1  0  0  0
 23 24  2  0  0  0
 23 28  1  0  0  0
 24 25  1  0  0  0
 24 52  1  0  0  0
 25 26  2  0  0  0
 25 53  1  0  0  0
 26 27  1  0  0  0
 26 54  1  0  0  0
 27 28  2  0  0  0
 27 55  1  0  0  0
 28 56  1  0  0  0
M  END
> <chembl_id>
CHEMBL3648395

> <chembl_pref_name>
None

> <i_m_ct_stereo_status>
1

> <s_m_source_file>
sdf/inactives_sanitized.sdf

> <i_m_source_file_index>
431

> <i_lp_mmshare_version>
49012

> <i_f3d_flags>
0

> <s_epik_input>
W2NIXTFbY0hdW2NIXVtjSF1bY0hdYzFDKD1PKVtOSF1bQ0BIXShDKD1PKU4oW0NIMl1bQ0gyXTIpW0NAQEhdKFtDQEBIXTIzKUMoPU8pW0NIMl1PMylbQ0gyXVtDSF00W0NIMl1bQ0gyXVtDSDJdW0NIMl1bQ0gyXTQ=

> <s_epik_cmdline>
J2VwaWtfcHl0aG9uJywgJy1waHQnLCAnMC41JywgJy1waCcsICc3LjUnLCAnLW50JywgJy1tYScsICcyMDAnLCAnLWltYWUnLCAnPGluZmlsZS5tYWU+JywgJy1vbWFlJywgJzxvdXRmaWxlLm1hZT4n

> <r_lp_tautomer_probability>
1

> <r_epik_Ionization_Penalty>
  0.0000

> <r_epik_Ionization_Penalty_Charging>
  0.0000

> <r_epik_Ionization_Penalty_Neutral>
  0.0000

> <r_epik_State_Penalty>
 -0.0000

> <r_epik_Charging_Adjusted_Penalty>
0

> <i_epik_Tot_Q>
0

> <i_epik_Tot_abs_Q>
0

> <s_lp_Force_Field>
OPLS3e

> <r_lp_Energy>
24.840829

> <b_lp_Chiralities_Consistent>
1

> <s_lp_Variant>
sdf/inactives_sanitized.sdf:431-1

$$$$
 
                    3D
 Schrodinger Suite 2020-1.
 60 61  0  0  1  0            999 V2000
   -6.9627   -6.2839   -3.3113 O   0  0  0  0  0  0
   -5.9629   -6.4644   -2.2526 S   0  0  0  0  0  0
   -4.7630   -7.2722   -2.4985 O   0  0  0  0  0  0
   -5.0357    0.0219   -0.0339 C   0  0  0  0  0  0
   -4.6143    1.2851    0.3737 C   0  0  0  0  0  0
   -3.2601    1.6082    0.3566 C   0  0  0  0  0  0
   -2.3084    0.6709   -0.0654 C   0  0  0  0  0  0
   -2.7548   -0.5968   -0.4778 C   0  0  0  0  0  0
   -4.1150   -0.9419   -0.4679 C   0  0  0  0  0  0
   -0.8417    1.0411   -0.0846 C   0  0  0  0  0  0
    0.0285    0.0131   -0.0653 N   0  0  0  0  0  0
   -0.4906    2.2231   -0.0933 O   0  0  0  0  0  0
    1.4950    0.1124   -0.0856 C   0  0  2  0  0  0
    2.0928   -0.5246   -1.3779 C   0  0  0  0  0  0
    3.3810   -0.2496   -1.7387 N   0  0  0  0  0  0
    1.3765   -1.2870   -2.0352 O   0  0  0  0  0  0
    4.1022    0.7524   -1.0439 N   0  0  1  0  0  0
    5.2354    0.3767   -0.4005 C   0  0  0  0  0  0
    4.0373    2.0414   -1.7228 C   0  0  0  0  0  0
    6.1751    0.0390    0.1834 N   0  0  0  0  0  0
    4.0520   -0.8850   -2.8842 C   0  0  0  0  0  0
    2.0633   -0.5623    1.1947 C   0  0  0  0  0  0
    1.7393    0.1728    2.5169 C   0  0  0  0  0  0
    2.3292    1.5992    2.5526 C   0  0  0  0  0  0
    2.1696   -0.6674    3.7385 C   0  0  0  0  0  0
   -4.5685   -2.2966   -0.9090 C   0  0  0  0  0  0
   -3.7805   -3.4307   -0.6659 C   0  0  0  0  0  0
   -4.1999   -4.6932   -1.0752 C   0  0  0  0  0  0
   -5.4189   -4.8381   -1.7363 C   0  0  0  0  0  0
   -6.2170   -3.7220   -1.9852 C   0  0  0  0  0  0
   -5.7915   -2.4619   -1.5745 C   0  0  0  0  0  0
   -6.8302   -7.1331   -0.7176 C   0  0  0  0  0  0
   -6.0913   -0.2045   -0.0004 H   0  0  0  0  0  0
   -5.3382    2.0150    0.7049 H   0  0  0  0  0  0
   -2.9598    2.5956    0.6788 H   0  0  0  0  0  0
   -2.0388   -1.3253   -0.8307 H   0  0  0  0  0  0
   -0.3367   -0.9278   -0.0615 H   0  0  0  0  0  0
    1.7652    1.1680   -0.1008 H   0  0  0  0  0  0
    4.4130    2.8287   -1.0686 H   0  0  0  0  0  0
    3.0128    2.2987   -1.9961 H   0  0  0  0  0  0
    4.6463    2.0361   -2.6274 H   0  0  0  0  0  0
    3.4663   -1.6746   -3.3576 H   0  0  0  0  0  0
    4.9934   -1.3362   -2.5689 H   0  0  0  0  0  0
    4.2771   -0.1453   -3.6531 H   0  0  0  0  0  0
    1.6894   -1.5869    1.2482 H   0  0  0  0  0  0
    3.1472   -0.6633    1.1285 H   0  0  0  0  0  0
    0.6550    0.2710    2.5822 H   0  0  0  0  0  0
    3.0985    1.7420    1.7931 H   0  0  0  0  0  0
    2.7805    1.8458    3.5137 H   0  0  0  0  0  0
    1.5500    2.3399    2.3700 H   0  0  0  0  0  0
    2.9749   -0.2025    4.3074 H   0  0  0  0  0  0
    2.5228   -1.6582    3.4511 H   0  0  0  0  0  0
    1.3321   -0.8125    4.4216 H   0  0  0  0  0  0
   -2.8381   -3.3443   -0.1451 H   0  0  0  0  0  0
   -3.5785   -5.5534   -0.8729 H   0  0  0  0  0  0
   -7.1635   -3.8236   -2.4956 H   0  0  0  0  0  0
   -6.4199   -1.6099   -1.7887 H   0  0  0  0  0  0
   -7.2128   -8.1296   -0.9361 H   0  0  0  0  0  0
   -7.6527   -6.4678   -0.4564 H   0  0  0  0  0  0
   -6.1139   -7.1816    0.1021 H   0  0  0  0  0  0
  1  2  2  0  0  0
  2  3  2  0  0  0
  2 29  1  0  0  0
  2 32  1  0  0  0
  4  5  2  0  0  0
  4  9  1  0  0  0
  4 33  1  0  0  0
  5  6  1  0  0  0
  5 34  1  0  0  0
  6  7  2  0  0  0
  6 35  1  0  0  0
  7  8  1  0  0  0
  7 10  1  0  0  0
  8  9  2  0  0  0
  8 36  1  0  0  0
  9 26  1  0  0  0
 10 11  1  0  0  0
 10 12  2  0  0  0
 11 13  1  0  0  0
 11 37  1  0  0  0
 13 14  1  0  0  0
 13 22  1  0  0  0
 13 38  1  0  0  0
 14 15  1  0  0  0
 14 16  2  0  0  0
 15 17  1  0  0  0
 15 21  1  0  0  0
 17 18  1  0  0  0
 17 19  1  0  0  0
 18 20  3  0  0  0
 19 39  1  0  0  0
 19 40  1  0  0  0
 19 41  1  0  0  0
 21 42  1  0  0  0
 21 43  1  0  0  0
 21 44  1  0  0  0
 22 23  1  0  0  0
 22 45  1  0  0  0
 22 46  1  0  0  0
 23 24  1  0  0  0
 23 25  1  0  0  0
 23 47  1  0  0  0
 24 48  1  0  0  0
 24 49  1  0  0  0
 24 50  1  0  0  0
 25 51  1  0  0  0
 25 52  1  0  0  0
 25 53  1  0  0  0
 26 27  2  0  0  0
 26 31  1  0  0  0
 27 28  1  0  0  0
 27 54  1  0  0  0
 28 29  2  0  0  0
 28 55  1  0  0  0
 29 30  1  0  0  0
 30 31  2  0  0  0
 30 56  1  0  0  0
 31 57  1  0  0  0
 32 58  1  0  0  0
 32 59  1  0  0  0
 32 60  1  0  0  0
M  END
> <chembl_id>
CHEMBL4454648

> <chembl_pref_name>
None

> <s_m_source_file>
sdf/inactives_sanitized.sdf

> <i_m_source_file_index>
432

> <i_lp_mmshare_version>
49012

> <i_m_ct_stereo_status>
1

> <i_f3d_flags>
0

> <s_epik_input>
Tz1TKD1PKShbQ0gzXSljKFtjSF1bY0hdMSlbY0hdW2NIXWMxLWMoW2NIXTIpW2NIXVtjSF1bY0hdYzJDKD1PKVtOSF1bQ0BASF0oW0NIMl1bQ0hdKFtDSDNdKVtDSDNdKUMoPU8pTihbQ0gzXSlOKEMjTilbQ0gzXQ==

> <s_epik_cmdline>
J2VwaWtfcHl0aG9uJywgJy1waHQnLCAnMC41JywgJy1waCcsICc3LjUnLCAnLW50JywgJy1tYScsICcyMDAnLCAnLWltYWUnLCAnPGluZmlsZS5tYWU+JywgJy1vbWFlJywgJzxvdXRmaWxlLm1hZT4n

> <r_lp_tautomer_probability>
1

> <r_epik_Ionization_Penalty>
  0.0000

> <r_epik_Ionization_Penalty_Charging>
  0.0000

> <r_epik_Ionization_Penalty_Neutral>
  0.0000

> <r_epik_State_Penalty>
 -0.0000

> <r_epik_Charging_Adjusted_Penalty>
0

> <i_epik_Tot_Q>
0

> <i_epik_Tot_abs_Q>
0

> <s_lp_Force_Field>
OPLS3e

> <r_lp_Energy>
29.20895

> <b_lp_Chiralities_Consistent>
1

> <s_lp_Variant>
 -1

$$$$
 
                    3D
 Schrodinger Suite 2020-1.
 68 71  0  0  1  0            999 V2000
    5.0973    2.4192    3.0356 C   0  0  0  0  0  0
   -1.4674   -1.8048   -2.2056 O   0  0  0  0  0  0
   -1.0302   -0.7015   -1.5565 C   0  0  0  0  0  0
   -0.5843   -1.0684   -0.2907 N   0  0  0  0  0  0
   -1.0178    0.4359   -2.0343 O   0  0  0  0  0  0
    0.0022   -0.0751    0.6207 C   0  0  2  0  0  0
    1.5000    0.1480    0.3193 C   0  0  0  0  0  0
    1.8296    1.3593   -0.1588 N   0  0  0  0  0  0
    2.3092   -0.7510    0.5537 O   0  0  0  0  0  0
    3.1957    1.8416   -0.3603 C   0  0  2  0  0  0
    3.7232    2.4597    0.9246 C   0  0  0  0  0  0
    3.2828    2.8029   -1.5679 C   0  0  0  0  0  0
    2.7828    2.1911   -2.8738 C   0  0  0  0  0  0
    4.5964    1.8665    1.7619 C   0  0  0  0  0  0
   -0.2998   -0.4612    2.0927 C   0  0  0  0  0  0
    0.2556    0.4836    3.1513 C   0  0  0  0  0  0
    1.5295    0.2556    3.7171 C   0  0  0  0  0  0
    2.0794    1.1828    4.5923 C   0  0  0  0  0  0
    1.3921    2.3509    4.8962 C   0  0  0  0  0  0
    0.1529    2.6059    4.3216 C   0  0  0  0  0  0
   -0.4137    1.6912    3.4430 C   0  0  0  0  0  0
   -1.9232   -1.7509   -3.5583 C   0  0  0  0  0  0
   -3.3064   -1.1206   -3.6660 C   0  0  0  0  0  0
   -3.4600    0.1170   -4.2959 C   0  0  0  0  0  0
   -4.7239    0.6928   -4.3939 C   0  0  0  0  0  0
   -5.8281    0.0280   -3.8644 C   0  0  0  0  0  0
   -5.6806   -1.2075   -3.2367 C   0  0  0  0  0  0
   -4.4167   -1.7837   -3.1374 C   0  0  0  0  0  0
    3.6436    1.4122   -3.6518 C   0  0  0  0  0  0
    3.1821    0.8321   -4.8306 C   0  0  0  0  0  0
    1.8607    1.0300   -5.2262 C   0  0  0  0  0  0
    0.9971    1.8055   -4.4559 C   0  0  0  0  0  0
    1.4595    2.3898   -3.2797 C   0  0  0  0  0  0
    5.9038    1.6020    3.7662 N   0  0  0  0  0  0
    6.3470    2.0856    4.9563 C   0  0  0  0  0  0
    6.0018    3.3548    5.4248 C   0  0  0  0  0  0
    5.1698    4.1213    4.6066 C   0  0  0  0  0  0
    4.7078    3.6709    3.4109 N   0  0  0  0  0  0
   -0.5920   -2.0401   -0.0177 H   0  0  0  0  0  0
   -0.5142    0.8785    0.4747 H   0  0  0  0  0  0
    1.0939    2.0372   -0.2954 H   0  0  0  0  0  0
    3.8351    0.9908   -0.6118 H   0  0  0  0  0  0
    3.3332    3.4394    1.1619 H   0  0  0  0  0  0
    2.7208    3.7166   -1.3647 H   0  0  0  0  0  0
    4.3139    3.1319   -1.7087 H   0  0  0  0  0  0
    4.9626    0.8846    1.4949 H   0  0  0  0  0  0
   -1.3806   -0.5194    2.2327 H   0  0  0  0  0  0
    0.0742   -1.4658    2.2993 H   0  0  0  0  0  0
    2.0846   -0.6363    3.4654 H   0  0  0  0  0  0
    3.0514    1.0014    5.0272 H   0  0  0  0  0  0
    1.8302    3.0700    5.5727 H   0  0  0  0  0  0
   -0.3673    3.5247    4.5500 H   0  0  0  0  0  0
   -1.3659    1.9093    2.9816 H   0  0  0  0  0  0
   -1.2064   -1.2169   -4.1852 H   0  0  0  0  0  0
   -1.9750   -2.7668   -3.9508 H   0  0  0  0  0  0
   -2.6032    0.6348   -4.7028 H   0  0  0  0  0  0
   -4.8474    1.6506   -4.8776 H   0  0  0  0  0  0
   -6.8083    0.4754   -3.9414 H   0  0  0  0  0  0
   -6.5423   -1.7153   -2.8289 H   0  0  0  0  0  0
   -4.3002   -2.7408   -2.6501 H   0  0  0  0  0  0
    4.6658    1.2506   -3.3410 H   0  0  0  0  0  0
    3.8442    0.2281   -5.4334 H   0  0  0  0  0  0
    1.5019    0.5767   -6.1385 H   0  0  0  0  0  0
   -0.0275    1.9491   -4.7658 H   0  0  0  0  0  0
    0.7851    2.9828   -2.6792 H   0  0  0  0  0  0
    6.9875    1.4366    5.5352 H   0  0  0  0  0  0
    6.3614    3.7258    6.3733 H   0  0  0  0  0  0
    4.8612    5.1128    4.9037 H   0  0  0  0  0  0
  1 14  1  0  0  0
  1 34  2  0  0  0
  1 38  1  0  0  0
  2  3  1  0  0  0
  2 22  1  0  0  0
  3  4  1  0  0  0
  3  5  2  0  0  0
  4  6  1  0  0  0
  4 39  1  0  0  0
  6  7  1  0  0  0
  6 15  1  0  0  0
  6 40  1  0  0  0
  7  8  1  0  0  0
  7  9  2  0  0  0
  8 10  1  0  0  0
  8 41  1  0  0  0
 10 11  1  0  0  0
 10 12  1  0  0  0
 10 42  1  0  0  0
 11 14  2  0  0  0
 11 43  1  0  0  0
 12 13  1  0  0  0
 12 44  1  0  0  0
 12 45  1  0  0  0
 13 29  2  0  0  0
 13 33  1  0  0  0
 14 46  1  0  0  0
 15 16  1  0  0  0
 15 47  1  0  0  0
 15 48  1  0  0  0
 16 17  2  0  0  0
 16 21  1  0  0  0
 17 18  1  0  0  0
 17 49  1  0  0  0
 18 19  2  0  0  0
 18 50  1  0  0  0
 19 20  1  0  0  0
 19 51  1  0  0  0
 20 21  2  0  0  0
 20 52  1  0  0  0
 21 53  1  0  0  0
 22 23  1  0  0  0
 22 54  1  0  0  0
 22 55  1  0  0  0
 23 24  2  0  0  0
 23 28  1  0  0  0
 24 25  1  0  0  0
 24 56  1  0  0  0
 25 26  2  0  0  0
 25 57  1  0  0  0
 26 27  1  0  0  0
 26 58  1  0  0  0
 27 28  2  0  0  0
 27 59  1  0  0  0
 28 60  1  0  0  0
 29 30  1  0  0  0
 29 61  1  0  0  0
 30 31  2  0  0  0
 30 62  1  0  0  0
 31 32  1  0  0  0
 31 63  1  0  0  0
 32 33  2  0  0  0
 32 64  1  0  0  0
 33 65  1  0  0  0
 34 35  1  0  0  0
 35 36  2  0  0  0
 35 66  1  0  0  0
 36 37  1  0  0  0
 36 67  1  0  0  0
 37 38  2  0  0  0
 37 68  1  0  0  0
M  END
> <chembl_id>
CHEMBL4556756

> <chembl_pref_name>
None

> <i_m_ct_stereo_status>
1

> <s_m_source_file>
sdf/inactives_sanitized.sdf

> <i_m_source_file_index>
433

> <i_lp_mmshare_version>
49012

> <i_f3d_flags>
0

> <s_epik_input>
bjFbY0hdW2NIXVtjSF1uYzFcW0NIXT1bQ0hdXFtDQEhdKFtDSDJdYzJbY0hdW2NIXVtjSF1bY0hdW2NIXTIpW05IXUMoPU8pW0NASF0oW0NIMl1jM1tjSF1bY0hdW2NIXVtjSF1bY0hdMylbTkhdQyg9TylPW0NIMl1jNFtjSF1bY0hdW2NIXVtjSF1bY0hdNA==

> <s_epik_cmdline>
J2VwaWtfcHl0aG9uJywgJy1waHQnLCAnMC41JywgJy1waCcsICc3LjUnLCAnLW50JywgJy1tYScsICcyMDAnLCAnLWltYWUnLCAnPGluZmlsZS5tYWU+JywgJy1vbWFlJywgJzxvdXRmaWxlLm1hZT4n

> <r_lp_tautomer_probability>
1

> <r_epik_Ionization_Penalty>
  0.0000

> <r_epik_Ionization_Penalty_Charging>
  0.0000

> <r_epik_Ionization_Penalty_Neutral>
  0.0000

> <r_epik_State_Penalty>
 -0.0000

> <r_epik_Charging_Adjusted_Penalty>
0

> <i_epik_Tot_Q>
0

> <i_epik_Tot_abs_Q>
0

> <s_epik_Chemistry_Notes>
This compound has an ester and may undergo hydrolysis at high or low pH. This compound contains an electron-poor aromatic ring that is susceptible to covalent hydrolysis at low pH, typically resulting in measured values for nitrogen ring protonation that are around two units higher than predicted values.

> <s_lp_Force_Field>
OPLS3e

> <r_lp_Energy>
46.249036

> <b_lp_Chiralities_Consistent>
1

> <s_lp_Variant>
 -1

$$$$
 
                    3D
 Schrodinger Suite 2020-1.
 69 72  0  0  1  0            999 V2000
    3.5502    4.0929    3.1240 C   0  0  0  0  0  0
   -1.3359   -0.8864   -3.3226 O   0  0  0  0  0  0
   -0.9345    0.0482   -2.4410 C   0  0  0  0  0  0
   -0.6225   -0.5784   -1.2400 N   0  0  0  0  0  0
   -0.8549    1.2559   -2.6813 O   0  0  0  0  0  0
   -0.0783    0.1773   -0.1028 C   0  0  2  0  0  0
    1.4617    0.2656   -0.1726 C   0  0  0  0  0  0
    1.9901    1.4986   -0.0821 N   0  0  0  0  0  0
    2.1244   -0.7689   -0.2686 O   0  0  0  0  0  0
    3.4244    1.8173   -0.1194 C   0  0  2  0  0  0
    3.8712    2.7181    1.0301 C   0  0  0  0  0  0
    3.8568    2.3843   -1.4948 C   0  0  0  0  0  0
    3.1002    3.2228    2.0182 C   0  0  0  0  0  0
   -0.6117   -0.4362    1.2171 C   0  0  0  0  0  0
   -0.1782    0.2579    2.5010 C   0  0  0  0  0  0
    0.9933   -0.1508    3.1746 C   0  0  0  0  0  0
    1.4337    0.5479    4.2907 C   0  0  0  0  0  0
    0.7387    1.6653    4.7351 C   0  0  0  0  0  0
   -0.3918    2.1048    4.0576 C   0  0  0  0  0  0
   -0.8466    1.4214    2.9373 C   0  0  0  0  0  0
    4.8799    4.3680    3.2456 N   0  0  0  0  0  0
    5.2854    5.1666    4.2658 C   0  0  0  0  0  0
    4.4001    5.7175    5.1925 C   0  0  0  0  0  0
    3.0402    5.4350    5.0604 C   0  0  0  0  0  0
    2.6064    4.6161    4.0162 C   0  0  0  0  0  0
   -1.7066   -0.5293   -4.6510 C   0  0  0  0  0  0
   -2.1126   -1.7549   -5.4614 C   0  0  0  0  0  0
   -1.8810   -1.7597   -6.8394 C   0  0  0  0  0  0
   -2.2541   -2.8603   -7.6068 C   0  0  0  0  0  0
   -2.8617   -3.9543   -6.9947 C   0  0  0  0  0  0
   -3.1013   -3.9569   -5.6226 C   0  0  0  0  0  0
   -2.7292   -2.8562   -4.8552 C   0  0  0  0  0  0
    3.4859    1.5011   -2.6826 C   0  0  0  0  0  0
    4.2252    0.3453   -2.9478 C   0  0  0  0  0  0
    3.8693   -0.4788   -4.0124 C   0  0  0  0  0  0
    2.7773   -0.1432   -4.8102 C   0  0  0  0  0  0
    2.0402    1.0110   -4.5552 C   0  0  0  0  0  0
    2.3946    1.8344   -3.4901 C   0  0  0  0  0  0
   -0.6903   -1.5831   -1.1688 H   0  0  0  0  0  0
   -0.4822    1.1940   -0.1165 H   0  0  0  0  0  0
    1.3619    2.2874   -0.0316 H   0  0  0  0  0  0
    3.9951    0.9008    0.0472 H   0  0  0  0  0  0
    4.9250    2.9573    1.0208 H   0  0  0  0  0  0
    3.4264    3.3773   -1.6376 H   0  0  0  0  0  0
    4.9369    2.5396   -1.5111 H   0  0  0  0  0  0
    2.0466    2.9826    2.0230 H   0  0  0  0  0  0
   -1.7029   -0.4407    1.1955 H   0  0  0  0  0  0
   -0.3219   -1.4868    1.2823 H   0  0  0  0  0  0
    1.5510   -1.0070    2.8240 H   0  0  0  0  0  0
    2.3246    0.2266    4.8100 H   0  0  0  0  0  0
    1.0894    2.2056    5.6022 H   0  0  0  0  0  0
   -0.9136    2.9870    4.3982 H   0  0  0  0  0  0
   -1.7150    1.7810    2.4049 H   0  0  0  0  0  0
    6.3453    5.3633    4.3317 H   0  0  0  0  0  0
    4.7582    6.3492    5.9921 H   0  0  0  0  0  0
    2.3279    5.8475    5.7598 H   0  0  0  0  0  0
    1.5546    4.3963    3.9059 H   0  0  0  0  0  0
   -2.5389    0.1760   -4.6347 H   0  0  0  0  0  0
   -0.8620   -0.0388   -5.1381 H   0  0  0  0  0  0
   -1.4122   -0.9121   -7.3184 H   0  0  0  0  0  0
   -2.0747   -2.8654   -8.6718 H   0  0  0  0  0  0
   -3.1523   -4.8075   -7.5900 H   0  0  0  0  0  0
   -3.5762   -4.8076   -5.1566 H   0  0  0  0  0  0
   -2.9244   -2.8638   -3.7927 H   0  0  0  0  0  0
    5.0662    0.0800   -2.3234 H   0  0  0  0  0  0
    4.4345   -1.3765   -4.2160 H   0  0  0  0  0  0
    2.4986   -0.7844   -5.6335 H   0  0  0  0  0  0
    1.1928    1.2630   -5.1754 H   0  0  0  0  0  0
    1.8124    2.7212   -3.2863 H   0  0  0  0  0  0
  1 13  1  0  0  0
  1 21  2  0  0  0
  1 25  1  0  0  0
  2  3  1  0  0  0
  2 26  1  0  0  0
  3  4  1  0  0  0
  3  5  2  0  0  0
  4  6  1  0  0  0
  4 39  1  0  0  0
  6  7  1  0  0  0
  6 14  1  0  0  0
  6 40  1  0  0  0
  7  8  1  0  0  0
  7  9  2  0  0  0
  8 10  1  0  0  0
  8 41  1  0  0  0
 10 11  1  0  0  0
 10 12  1  0  0  0
 10 42  1  0  0  0
 11 13  2  0  0  0
 11 43  1  0  0  0
 12 33  1  0  0  0
 12 44  1  0  0  0
 12 45  1  0  0  0
 13 46  1  0  0  0
 14 15  1  0  0  0
 14 47  1  0  0  0
 14 48  1  0  0  0
 15 16  2  0  0  0
 15 20  1  0  0  0
 16 17  1  0  0  0
 16 49  1  0  0  0
 17 18  2  0  0  0
 17 50  1  0  0  0
 18 19  1  0  0  0
 18 51  1  0  0  0
 19 20  2  0  0  0
 19 52  1  0  0  0
 20 53  1  0  0  0
 21 22  1  0  0  0
 22 23  2  0  0  0
 22 54  1  0  0  0
 23 24  1  0  0  0
 23 55  1  0  0  0
 24 25  2  0  0  0
 24 56  1  0  0  0
 25 57  1  0  0  0
 26 27  1  0  0  0
 26 58  1  0  0  0
 26 59  1  0  0  0
 27 28  2  0  0  0
 27 32  1  0  0  0
 28 29  1  0  0  0
 28 60  1  0  0  0
 29 30  2  0  0  0
 29 61  1  0  0  0
 30 31  1  0  0  0
 30 62  1  0  0  0
 31 32  2  0  0  0
 31 63  1  0  0  0
 32 64  1  0  0  0
 33 34  2  0  0  0
 33 38  1  0  0  0
 34 35  1  0  0  0
 34 65  1  0  0  0
 35 36  2  0  0  0
 35 66  1  0  0  0
 36 37  1  0  0  0
 36 67  1  0  0  0
 37 38  2  0  0  0
 37 68  1  0  0  0
 38 69  1  0  0  0
M  END
> <chembl_id>
CHEMBL4544942

> <chembl_pref_name>
None

> <i_m_ct_stereo_status>
1

> <s_m_source_file>
sdf/inactives_sanitized.sdf

> <i_m_source_file_index>
434

> <i_lp_mmshare_version>
49012

> <i_f3d_flags>
0

> <s_epik_input>
W2NIXTFbY0hdW2NIXVtjSF1uYzFcW0NIXT1bQ0hdXFtDQEhdKFtDSDJdYzJbY0hdW2NIXVtjSF1bY0hdW2NIXTIpW05IXUMoPU8pW0NASF0oW0NIMl1jM1tjSF1bY0hdW2NIXVtjSF1bY0hdMylbTkhdQyg9TylPW0NIMl1jNFtjSF1bY0hdW2NIXVtjSF1bY0hdNA==

> <s_epik_cmdline>
J2VwaWtfcHl0aG9uJywgJy1waHQnLCAnMC41JywgJy1waCcsICc3LjUnLCAnLW50JywgJy1tYScsICcyMDAnLCAnLWltYWUnLCAnPGluZmlsZS5tYWU+JywgJy1vbWFlJywgJzxvdXRmaWxlLm1hZT4n

> <r_lp_tautomer_probability>
1

> <r_epik_Ionization_Penalty>
  0.0053

> <r_epik_Ionization_Penalty_Charging>
  0.0000

> <r_epik_Ionization_Penalty_Neutral>
  0.0053

> <r_epik_State_Penalty>
 -0.0000

> <r_epik_Charging_Adjusted_Penalty>
0

> <i_epik_Tot_Q>
0

> <i_epik_Tot_abs_Q>
0

> <s_epik_Chemistry_Notes>
This compound has an ester and may undergo hydrolysis at high or low pH.

> <s_lp_Force_Field>
OPLS3e

> <r_lp_Energy>
44.85851

> <b_lp_Chiralities_Consistent>
1

> <s_lp_Variant>
 -1

$$$$
sdf/inactives_sanitized.sdf:435
                    3D
 Schrodinger Suite 2020-1.
 41 44  0  0  1  0            999 V2000
   -2.4085    2.7989    1.6773 N   0  0  0  0  0  0
   -3.0606    3.6171    2.5349 C   0  0  0  0  0  0
   -2.8885    4.9941    2.5550 C   0  0  0  0  0  0
   -2.0060    5.5705    1.6479 C   0  0  0  0  0  0
   -1.3031    4.7530    0.7157 C   0  0  0  0  0  0
   -0.3780    5.2735   -0.2432 C   0  0  0  0  0  0
    0.2943    4.3906   -1.0875 C   0  0  0  0  0  0
    0.0690    3.0232   -1.0309 C   0  0  0  0  0  0
   -0.8347    2.4708   -0.1231 C   0  0  0  0  0  0
   -1.5375    3.3379    0.7715 C   0  0  0  0  0  0
   -0.1097    6.7178   -0.3731 N   0  3  0  0  0  0
    1.0601    7.0862   -0.3389 O   0  0  0  0  0  0
   -1.0630    7.4718   -0.5402 O   0  5  0  0  0  0
   -1.0125    0.9834   -0.1516 C   0  0  0  0  0  0
   -2.2302    0.2908   -0.2059 C   0  0  0  0  0  0
   -1.9410   -1.0582   -0.2455 C   0  0  0  0  0  0
   -0.6003   -1.2392   -0.2131 O   0  0  0  0  0  0
   -0.0218   -0.0086   -0.1485 C   0  0  0  0  0  0
    1.4678    0.0147   -0.0674 C   0  0  0  0  0  0
    2.1150    0.9893    0.6944 C   0  0  0  0  0  0
    3.5046    1.0102    0.7748 C   0  0  0  0  0  0
    4.2697    0.0512    0.0952 C   0  0  0  0  0  0
    3.6130   -0.9265   -0.6648 C   0  0  0  0  0  0
    2.2233   -0.9456   -0.7435 C   0  0  0  0  0  0
    5.7676    0.0466    0.1648 C   0  0  0  0  0  0
    6.4570    1.1231    1.0063 C   0  0  0  0  0  0
    6.4745   -0.7767   -0.4176 O   0  0  0  0  0  0
   -3.7377    3.1402    3.2282 H   0  0  0  0  0  0
   -3.4269    5.6061    3.2637 H   0  0  0  0  0  0
   -1.8560    6.6392    1.6660 H   0  0  0  0  0  0
    0.9983    4.7722   -1.8132 H   0  0  0  0  0  0
    0.6078    2.3832   -1.7153 H   0  0  0  0  0  0
   -3.2162    0.7313   -0.2230 H   0  0  0  0  0  0
   -2.5469   -1.9510   -0.2956 H   0  0  0  0  0  0
    1.5453    1.7328    1.2328 H   0  0  0  0  0  0
    3.9659    1.7809    1.3745 H   0  0  0  0  0  0
    4.1694   -1.6823   -1.2015 H   0  0  0  0  0  0
    1.7381   -1.7081   -1.3360 H   0  0  0  0  0  0
    6.1938    2.1153    0.6396 H   0  0  0  0  0  0
    7.5419    1.0169    0.9721 H   0  0  0  0  0  0
    6.1336    1.0553    2.0451 H   0  0  0  0  0  0
  1  2  2  0  0  0
  1 10  1  0  0  0
  2  3  1  0  0  0
  2 28  1  0  0  0
  3  4  2  0  0  0
  3 29  1  0  0  0
  4  5  1  0  0  0
  4 30  1  0  0  0
  5  6  2  0  0  0
  5 10  1  0  0  0
  6  7  1  0  0  0
  6 11  1  0  0  0
  7  8  2  0  0  0
  7 31  1  0  0  0
  8  9  1  0  0  0
  8 32  1  0  0  0
  9 10  2  0  0  0
  9 14  1  0  0  0
 11 12  2  0  0  0
 11 13  1  0  0  0
 14 15  1  0  0  0
 14 18  2  0  0  0
 15 16  2  0  0  0
 15 33  1  0  0  0
 16 17  1  0  0  0
 16 34  1  0  0  0
 17 18  1  0  0  0
 18 19  1  0  0  0
 19 20  2  0  0  0
 19 24  1  0  0  0
 20 21  1  0  0  0
 20 35  1  0  0  0
 21 22  2  0  0  0
 21 36  1  0  0  0
 22 23  1  0  0  0
 22 25  1  0  0  0
 23 24  2  0  0  0
 23 37  1  0  0  0
 24 38  1  0  0  0
 25 26  1  0  0  0
 25 27  2  0  0  0
 26 39  1  0  0  0
 26 40  1  0  0  0
 26 41  1  0  0  0
M  CHG  2  11   1  13  -1
M  END
> <chembl_id>
CHEMBL4228863

> <chembl_pref_name>
None

> <s_m_source_file>
sdf/inactives_sanitized.sdf

> <i_m_source_file_index>
435

> <i_lp_mmshare_version>
49012

> <i_m_ct_stereo_status>
1

> <i_f3d_flags>
0

> <s_epik_input>
W2NIXTFbY0hdW2NIXW5jKGMxMiljKFtjSF1bY0hdYzJbTitdKD1PKVtPLV0pLWMzW2NIXVtjSF1vYzMtYzRbY0hdW2NIXWMoW2NIXVtjSF00KUMoPU8pW0NIM10=

> <s_epik_cmdline>
J2VwaWtfcHl0aG9uJywgJy1waHQnLCAnMC41JywgJy1waCcsICc3LjUnLCAnLW50JywgJy1tYScsICcyMDAnLCAnLWltYWUnLCAnPGluZmlsZS5tYWU+JywgJy1vbWFlJywgJzxvdXRmaWxlLm1hZT4n

> <r_lp_tautomer_probability>
1

> <r_epik_Ionization_Penalty>
  0.0000

> <r_epik_Ionization_Penalty_Charging>
  0.0000

> <r_epik_Ionization_Penalty_Neutral>
  0.0000

> <r_epik_State_Penalty>
 -0.0000

> <r_epik_Charging_Adjusted_Penalty>
0

> <i_epik_Tot_Q>
0

> <i_epik_Tot_abs_Q>
2

> <s_lp_Force_Field>
OPLS3e

> <r_lp_Energy>
42.111289

> <b_lp_Chiralities_Consistent>
1

> <s_lp_Variant>
sdf/inactives_sanitized.sdf:435-1

$$$$
