sdf/actives_sanitized.sdf:1
                    3D
 Schrodinger Suite 2020-1.
 59 63  0  0  1  0            999 V2000
   -0.4358   -0.9506   -1.2568 C   0  0  0  0  0  0
   -0.0488   -0.1508   -0.0106 C   0  0  1  0  0  0
    1.4889   -0.1935    0.2327 C   0  0  0  0  0  0
    1.9735    0.6471    1.3295 N   0  0  0  0  0  0
    1.7505    0.4185    2.6350 C   0  0  0  0  0  0
    2.3333    1.4532    3.5576 C   0  0  0  0  0  0
    1.1223   -0.5416    3.0815 O   0  0  0  0  0  0
   -0.6751    1.2527   -0.0004 C   0  0  0  0  0  0
   -1.9443    1.4360    0.5624 C   0  0  0  0  0  0
   -2.5318    2.7010    0.5897 C   0  0  0  0  0  0
   -1.8546    3.7961    0.0550 C   0  0  0  0  0  0
   -0.5920    3.6254   -0.5114 C   0  0  0  0  0  0
   -0.0061    2.3597   -0.5418 C   0  0  0  0  0  0
    1.5838    2.5891    3.9206 C   0  0  0  0  0  0
    2.1314    3.5450    4.7765 C   0  0  0  0  0  0
    3.4244    3.3947    5.2889 C   0  0  0  0  0  0
    4.1674    2.2633    4.9286 C   0  0  0  0  0  0
    3.6345    1.2983    4.0733 C   0  0  0  0  0  0
    4.6290   -0.0692    3.6850 Cl  0  0  0  0  0  0
    3.9639    4.3755    6.1588 N   0  0  0  0  0  0
    3.3241    5.3431    6.8936 C   0  0  0  0  0  0
    4.1835    6.0564    7.5736 N   0  0  0  0  0  0
    5.3365    5.4968    7.2426 C   0  0  0  0  0  0
    5.2797    4.4893    6.3963 N   0  0  0  0  0  0
   -0.0267    2.8632    3.3384 Cl  0  0  0  0  0  0
    6.6523    6.0070    7.7867 C   0  0  0  0  0  0
    0.0646    4.6869   -1.0314 F   0  0  0  0  0  0
   -1.0940   -2.1743   -1.1458 C   0  0  0  0  0  0
   -1.4318   -2.8684   -2.3037 C   0  0  0  0  0  0
   -0.0968   -0.4050   -2.4537 N   0  0  0  0  0  0
   -0.4193   -1.0691   -3.6002 C   0  0  0  0  0  0
   -1.1016   -2.3278   -3.5782 C   0  0  0  0  0  0
   -1.4103   -2.9676   -4.8175 C   0  0  0  0  0  0
   -1.0445   -2.3629   -6.0203 C   0  0  0  0  0  0
   -0.3813   -1.1417   -6.0331 C   0  0  0  0  0  0
   -0.0648   -0.4885   -4.8460 C   0  0  0  0  0  0
   -2.1367   -4.3062   -4.8316 C   0  0  0  0  0  0
    0.5816    0.7008   -4.8977 F   0  0  0  0  0  0
   -0.4817   -0.6810    0.8405 H   0  0  0  0  0  0
    1.8144   -1.2231    0.3946 H   0  0  0  0  0  0
    2.0133    0.1344   -0.6657 H   0  0  0  0  0  0
    2.5110    1.4603    1.0670 H   0  0  0  0  0  0
   -2.4791    0.5964    0.9823 H   0  0  0  0  0  0
   -3.5106    2.8321    1.0271 H   0  0  0  0  0  0
   -2.3086    4.7758    0.0784 H   0  0  0  0  0  0
    0.9693    2.2442   -0.9905 H   0  0  0  0  0  0
    1.5374    4.4104    5.0311 H   0  0  0  0  0  0
    5.1669    2.1201    5.3143 H   0  0  0  0  0  0
    2.2500    5.4517    6.8780 H   0  0  0  0  0  0
    7.5245    5.6322    7.2496 H   0  0  0  0  0  0
    6.7541    5.8238    8.8566 H   0  0  0  0  0  0
    6.6970    7.0927    7.6954 H   0  0  0  0  0  0
   -1.3450   -2.5845   -0.1784 H   0  0  0  0  0  0
   -1.9448   -3.8155   -2.2270 H   0  0  0  0  0  0
   -1.2757   -2.8425   -6.9605 H   0  0  0  0  0  0
   -0.1087   -0.6946   -6.9780 H   0  0  0  0  0  0
   -2.3010   -4.6702   -5.8466 H   0  0  0  0  0  0
   -3.1101   -4.2172   -4.3482 H   0  0  0  0  0  0
   -1.5574   -5.0600   -4.2975 H   0  0  0  0  0  0
  1  2  1  0  0  0
  1 28  2  0  0  0
  1 30  1  0  0  0
  2  3  1  0  0  0
  2  8  1  0  0  0
  2 39  1  0  0  0
  3  4  1  0  0  0
  3 40  1  0  0  0
  3 41  1  0  0  0
  4  5  1  0  0  0
  4 42  1  0  0  0
  5  6  1  0  0  0
  5  7  2  0  0  0
  6 14  2  0  0  0
  6 18  1  0  0  0
  8  9  2  0  0  0
  8 13  1  0  0  0
  9 10  1  0  0  0
  9 43  1  0  0  0
 10 11  2  0  0  0
 10 44  1  0  0  0
 11 12  1  0  0  0
 11 45  1  0  0  0
 12 13  2  0  0  0
 12 27  1  0  0  0
 13 46  1  0  0  0
 14 15  1  0  0  0
 14 25  1  0  0  0
 15 16  2  0  0  0
 15 47  1  0  0  0
 16 17  1  0  0  0
 16 20  1  0  0  0
 17 18  2  0  0  0
 17 48  1  0  0  0
 18 19  1  0  0  0
 20 21  1  0  0  0
 20 24  1  0  0  0
 21 22  2  0  0  0
 21 49  1  0  0  0
 22 23  1  0  0  0
 23 24  2  0  0  0
 23 26  1  0  0  0
 26 50  1  0  0  0
 26 51  1  0  0  0
 26 52  1  0  0  0
 28 29  1  0  0  0
 28 53  1  0  0  0
 29 32  2  0  0  0
 29 54  1  0  0  0
 30 31  2  0  0  0
 31 32  1  0  0  0
 31 36  1  0  0  0
 32 33  1  0  0  0
 33 34  2  0  0  0
 33 37  1  0  0  0
 34 35  1  0  0  0
 34 55  1  0  0  0
 35 36  2  0  0  0
 35 56  1  0  0  0
 36 38  1  0  0  0
 37 57  1  0  0  0
 37 58  1  0  0  0
 37 59  1  0  0  0
M  END
> <chembl_id>
CHEMBL3627901

> <chembl_pref_name>
None

> <i_m_ct_stereo_status>
1

> <s_m_source_file>
sdf/actives_sanitized.sdf

> <i_m_source_file_index>
1

> <i_lp_mmshare_version>
49012

> <i_f3d_flags>
0

> <s_epik_input>
RmMxW2NIXVtjSF1jKFtDSDNdKWMoYzEyKVtjSF1bY0hdYyhuMilbQ0BIXShjM1tjSF1bY0hdW2NIXWMoRilbY0hdMylbQ0gyXVtOSF1DKD1PKWM0YyhDbClbY0hdYyhbY0hdYzRDbCktbjVbY0hdbmMobjUpW0NIM10=

> <s_epik_cmdline>
J2VwaWtfcHl0aG9uJywgJy1waHQnLCAnMC41JywgJy1waCcsICc3LjUnLCAnLW50JywgJy1tYScsICcyMDAnLCAnLWltYWUnLCAnPGluZmlsZS5tYWU+JywgJy1vbWFlJywgJzxvdXRmaWxlLm1hZT4n

> <r_lp_tautomer_probability>
1

> <r_epik_Ionization_Penalty>
  0.0002

> <r_epik_Ionization_Penalty_Charging>
  0.0000

> <r_epik_Ionization_Penalty_Neutral>
  0.0002

> <r_epik_State_Penalty>
 -0.0000

> <r_epik_Charging_Adjusted_Penalty>
0

> <i_epik_Tot_Q>
0

> <i_epik_Tot_abs_Q>
0

> <s_lp_Force_Field>
OPLS3e

> <r_lp_Energy>
42.34356

> <b_lp_Chiralities_Consistent>
1

> <s_lp_Variant>
sdf/actives_sanitized.sdf:1-1

$$$$
sdf/actives_sanitized.sdf:2
                    3D
 Schrodinger Suite 2020-1.
 56 59  0  0  1  0            999 V2000
   -2.7474   -0.5921   -0.0755 C   0  0  0  0  0  0
   -4.0653   -1.0350   -0.0767 C   0  0  0  0  0  0
   -4.5707   -1.7931    0.9746 C   0  0  0  0  0  0
   -1.8823   -0.8920    0.9871 C   0  0  0  0  0  0
   -2.3610   -1.6609    2.0679 C   0  0  0  0  0  0
   -3.7159   -2.1033    2.0415 C   0  0  0  0  0  0
   -4.1173   -3.0400    3.4710 S   0  0  0  0  0  0
   -2.4852   -2.8523    4.0993 C   0  0  0  0  0  0
   -1.6918   -2.0979    3.2477 C   0  0  0  0  0  0
   -2.1197   -3.4008    5.3142 C   0  0  0  0  0  0
   -2.6291   -4.5712    5.6770 N   0  0  0  0  0  0
   -1.2605   -2.7380    6.0777 N   0  3  0  0  0  0
   -0.5577   -0.5042    1.0889 O   0  0  0  0  0  0
    0.0480    0.2989    0.0686 C   0  0  2  0  0  0
    1.5681    0.2657    0.2976 C   0  0  0  0  0  0
   -0.4780    1.7360    0.0969 C   0  0  0  0  0  0
   -0.7952    2.3564    1.3108 C   0  0  0  0  0  0
   -1.2694    3.6653    1.3218 C   0  0  0  0  0  0
   -1.4258    4.3527    0.1203 C   0  0  0  0  0  0
   -1.1123    3.7430   -1.0924 C   0  0  0  0  0  0
   -0.6378    2.4341   -1.1039 C   0  0  0  0  0  0
    2.0668   -1.0477    0.0684 O   0  0  0  0  0  0
    3.3629   -1.3422    0.2883 C   0  0  0  0  0  0
    3.5762   -2.6758   -0.0406 N   0  0  0  0  0  0
    4.2028   -0.5385    0.7038 O   0  0  0  0  0  0
    4.8231   -3.2638    0.0483 C   0  0  0  0  0  0
    5.4401   -3.9895   -0.9618 C   0  0  0  0  0  0
    6.6284   -4.3835   -0.4109 N   0  0  0  0  0  0
    6.7965   -3.9899    0.8527 N   0  0  0  0  0  0
    5.7010   -3.3290    1.1561 C   0  0  0  0  0  0
    5.0476   -4.3435   -2.3773 C   0  0  0  0  0  0
    5.5413   -2.7828    2.5598 C   0  0  0  0  0  0
   -2.4098   -0.0079   -0.9176 H   0  0  0  0  0  0
   -4.7078   -0.7856   -0.9087 H   0  0  0  0  0  0
   -5.5965   -2.1322    0.9632 H   0  0  0  0  0  0
   -0.6571   -1.8654    3.4533 H   0  0  0  0  0  0
   -2.3660   -4.9834    6.5601 H   0  0  0  0  0  0
   -3.2794   -5.0443    5.0665 H   0  0  0  0  0  0
   -0.9824   -3.1186    6.9703 H   0  0  0  0  0  0
   -0.1558   -0.1476   -0.9073 H   0  0  0  0  0  0
    1.8004    0.5898    1.3137 H   0  0  0  0  0  0
    2.0630    0.9575   -0.3864 H   0  0  0  0  0  0
   -0.6720    1.8286    2.2454 H   0  0  0  0  0  0
   -1.5129    4.1463    2.2578 H   0  0  0  0  0  0
   -1.7920    5.3687    0.1289 H   0  0  0  0  0  0
   -1.2349    4.2837   -2.0194 H   0  0  0  0  0  0
   -0.3939    1.9655   -2.0464 H   0  0  0  0  0  0
    2.8209   -3.1883   -0.4718 H   0  0  0  0  0  0
    7.3292   -4.9254   -0.8957 H   0  0  0  0  0  0
    4.1239   -3.8492   -2.6791 H   0  0  0  0  0  0
    4.8919   -5.4161   -2.4939 H   0  0  0  0  0  0
    5.8150   -4.0498   -3.0939 H   0  0  0  0  0  0
    4.5263   -2.4400    2.7589 H   0  0  0  0  0  0
    6.2051   -1.9363    2.7375 H   0  0  0  0  0  0
    5.7678   -3.5345    3.3166 H   0  0  0  0  0  0
   -0.8978   -1.8486    5.7667 H   0  0  0  0  0  0
  1  4  2  0  0  0
  1  2  1  0  0  0
  1 33  1  0  0  0
  2  3  2  0  0  0
  2 34  1  0  0  0
  3  6  1  0  0  0
  3 35  1  0  0  0
  4  5  1  0  0  0
  4 13  1  0  0  0
  5  9  1  0  0  0
  5  6  2  0  0  0
  6  7  1  0  0  0
  7  8  1  0  0  0
  8  9  2  0  0  0
  8 10  1  0  0  0
  9 36  1  0  0  0
 10 11  1  0  0  0
 10 12  2  0  0  0
 11 37  1  0  0  0
 11 38  1  0  0  0
 12 39  1  0  0  0
 12 56  1  0  0  0
 13 14  1  0  0  0
 14 16  1  0  0  0
 14 15  1  0  0  0
 14 40  1  0  0  0
 15 22  1  0  0  0
 15 41  1  0  0  0
 15 42  1  0  0  0
 16 17  2  0  0  0
 16 21  1  0  0  0
 17 18  1  0  0  0
 17 43  1  0  0  0
 18 19  2  0  0  0
 18 44  1  0  0  0
 19 20  1  0  0  0
 19 45  1  0  0  0
 20 21  2  0  0  0
 20 46  1  0  0  0
 21 47  1  0  0  0
 22 23  1  0  0  0
 23 24  1  0  0  0
 23 25  2  0  0  0
 24 26  1  0  0  0
 24 48  1  0  0  0
 26 27  2  0  0  0
 26 30  1  0  0  0
 27 28  1  0  0  0
 27 31  1  0  0  0
 28 29  1  0  0  0
 28 49  1  0  0  0
 29 30  2  0  0  0
 30 32  1  0  0  0
 31 50  1  0  0  0
 31 51  1  0  0  0
 31 52  1  0  0  0
 32 53  1  0  0  0
 32 54  1  0  0  0
 32 55  1  0  0  0
M  CHG  1  12   1
M  END
> <chembl_id>
CHEMBL601019

> <chembl_pref_name>
None

> <s_m_source_file>
sdf/actives_sanitized.sdf

> <i_m_source_file_index>
2

> <i_lp_mmshare_version>
49012

> <i_m_ct_stereo_status>
1

> <i_f3d_flags>
0

> <s_epik_input>
W0hdXE49QyhbTkgyXSlcYyhbY0hdMSlzYyhjMTIpW2NIXVtjSF1bY0hdYzJPW0NAQEhdKGMzW2NIXVtjSF1bY0hdW2NIXVtjSF0zKVtDSDJdT0MoPU8pW05IXWM0YyhbQ0gzXSlbbkhdbmM0W0NIM10=

> <s_epik_cmdline>
J2VwaWtfcHl0aG9uJywgJy1waHQnLCAnMC41JywgJy1waCcsICc3LjUnLCAnLW50JywgJy1tYScsICcyMDAnLCAnLWltYWUnLCAnPGluZmlsZS5tYWU+JywgJy1vbWFlJywgJzxvdXRmaWxlLm1hZT4n

> <r_lp_tautomer_probability>
1

> <r_epik_Ionization_Penalty>
  0.0095

> <r_epik_Ionization_Penalty_Charging>
  0.0095

> <r_epik_Ionization_Penalty_Neutral>
  0.0001

> <r_epik_State_Penalty>
 -0.0000

> <r_epik_Charging_Adjusted_Penalty>
0.00945881282357717

> <i_epik_Tot_Q>
1

> <i_epik_Tot_abs_Q>
1

> <s_epik_Chemistry_Notes>
This compound has an ester and may undergo hydrolysis at high or low pH. This compound has an imine and may undergo hydrolysis.

> <s_lp_Force_Field>
OPLS3e

> <r_lp_Energy>
29.92026

> <b_lp_Chiralities_Consistent>
1

> <s_lp_Variant>
sdf/actives_sanitized.sdf:2-1

$$$$
sdf/actives_sanitized.sdf:3
                    3D
 Schrodinger Suite 2020-1.
 55 59  0  0  1  0            999 V2000
   -2.7142   -0.3197    0.4132 C   0  0  0  0  0  0
   -1.8420   -1.3289    0.8155 C   0  0  0  0  0  0
   -0.4659   -1.1440    0.7171 C   0  0  0  0  0  0
    0.0548    0.0563    0.2109 C   0  0  0  0  0  0
   -0.8372    1.0685   -0.1719 C   0  0  0  0  0  0
   -2.2304    0.9001   -0.0881 C   0  0  0  0  0  0
   -3.1476    1.9627   -0.5116 C   0  0  0  0  0  0
   -2.7824    3.2304   -0.3599 N   0  3  0  0  0  0
   -4.3200    1.6306   -1.0388 N   0  0  0  0  0  0
    1.4618    0.2578    0.0971 N   0  0  0  0  0  0
    2.2745   -0.4001    0.9513 N   0  0  0  0  0  0
    2.4634    2.4221   -2.6272 N   0  0  0  0  0  0
    2.1725    3.1868   -3.7640 C   0  0  0  0  0  0
    2.0857    2.6217   -5.0467 C   0  0  0  0  0  0
    1.8252    3.4375   -6.1486 C   0  0  0  0  0  0
    1.6742    4.8212   -5.9891 C   0  0  0  0  0  0
    1.3723    5.6306   -7.1077 N   0  0  0  0  0  0
    1.7769    5.3798   -4.7090 C   0  0  0  0  0  0
    2.0377    4.5682   -3.6055 C   0  0  0  0  0  0
    0.5395    6.7406   -7.1832 C   0  0  0  0  0  0
    1.9076    5.4922   -8.3744 C   0  0  0  0  0  0
    0.6556    7.1796   -8.5311 C   0  0  0  0  0  0
    1.5091    6.3836   -9.2421 N   0  0  0  0  0  0
    2.2012    0.8239   -0.9396 C   0  0  0  0  0  0
    3.5261    0.6012   -0.5814 C   0  0  0  0  0  0
    1.7079    1.4015   -2.1696 C   0  0  0  0  0  0
    3.5126   -0.1459    0.5959 C   0  0  0  0  0  0
    0.6907    0.9786   -2.7229 O   0  0  0  0  0  0
    4.6778   -0.6972    1.3972 C   0  0  0  0  0  0
    4.8636   -1.9913    1.1386 F   0  0  0  0  0  0
    5.8118   -0.0596    1.1048 F   0  0  0  0  0  0
    4.4761   -0.5680    2.7094 F   0  0  0  0  0  0
   -0.0629    8.3017   -8.9687 C   0  0  0  0  0  0
   -0.8843    8.9564   -8.0518 C   0  0  0  0  0  0
   -0.9968    8.5114   -6.7353 C   0  0  0  0  0  0
   -0.2955    7.3977   -6.2673 C   0  0  0  0  0  0
    2.2578    1.2921   -5.2372 F   0  0  0  0  0  0
   -3.7764   -0.4981    0.5054 H   0  0  0  0  0  0
   -2.2336   -2.2585    1.2020 H   0  0  0  0  0  0
    0.1877   -1.9471    1.0264 H   0  0  0  0  0  0
   -0.4376    2.0037   -0.5376 H   0  0  0  0  0  0
   -3.4023    3.9716   -0.6522 H   0  0  0  0  0  0
   -4.9607    2.3512   -1.3376 H   0  0  0  0  0  0
   -4.5614    0.6563   -1.1480 H   0  0  0  0  0  0
    3.2496    2.7230   -2.0700 H   0  0  0  0  0  0
    1.7410    2.9851   -7.1263 H   0  0  0  0  0  0
    1.6790    6.4449   -4.5602 H   0  0  0  0  0  0
    2.1270    5.0190   -2.6272 H   0  0  0  0  0  0
    2.6124    4.6983   -8.5761 H   0  0  0  0  0  0
    4.4053    0.9009   -1.1338 H   0  0  0  0  0  0
    0.0136    8.6525   -9.9875 H   0  0  0  0  0  0
   -1.4475    9.8226   -8.3676 H   0  0  0  0  0  0
   -1.6493    9.0430   -6.0581 H   0  0  0  0  0  0
   -0.4093    7.0671   -5.2461 H   0  0  0  0  0  0
   -1.8844    3.4473    0.0474 H   0  0  0  0  0  0
  1  2  2  0  0  0
  1  6  1  0  0  0
  1 38  1  0  0  0
  2  3  1  0  0  0
  2 39  1  0  0  0
  3  4  2  0  0  0
  3 40  1  0  0  0
  4  5  1  0  0  0
  4 10  1  0  0  0
  5  6  2  0  0  0
  5 41  1  0  0  0
  6  7  1  0  0  0
  7  8  2  0  0  0
  7  9  1  0  0  0
  8 42  1  0  0  0
  8 55  1  0  0  0
  9 43  1  0  0  0
  9 44  1  0  0  0
 10 11  1  0  0  0
 10 24  1  0  0  0
 11 27  2  0  0  0
 12 13  1  0  0  0
 12 26  1  0  0  0
 12 45  1  0  0  0
 13 14  2  0  0  0
 13 19  1  0  0  0
 14 15  1  0  0  0
 14 37  1  0  0  0
 15 16  2  0  0  0
 15 46  1  0  0  0
 16 17  1  0  0  0
 16 18  1  0  0  0
 17 20  1  0  0  0
 17 21  1  0  0  0
 18 19  2  0  0  0
 18 47  1  0  0  0
 19 48  1  0  0  0
 20 22  2  0  0  0
 20 36  1  0  0  0
 21 23  2  0  0  0
 21 49  1  0  0  0
 22 23  1  0  0  0
 22 33  1  0  0  0
 24 25  2  0  0  0
 24 26  1  0  0  0
 25 27  1  0  0  0
 25 50  1  0  0  0
 26 28  2  0  0  0
 27 29  1  0  0  0
 29 30  1  0  0  0
 29 31  1  0  0  0
 29 32  1  0  0  0
 33 34  2  0  0  0
 33 51  1  0  0  0
 34 35  1  0  0  0
 34 52  1  0  0  0
 35 36  2  0  0  0
 35 53  1  0  0  0
 36 54  1  0  0  0
M  CHG  1   8   1
M  END
> <chembl_id>
CHEMBL183682

> <chembl_pref_name>
None

> <s_m_source_file>
sdf/actives_sanitized.sdf

> <i_m_source_file_index>
3

> <i_lp_mmshare_version>
49012

> <i_m_ct_stereo_status>
1

> <i_f3d_flags>
0

> <s_epik_input>
W0hdXE49QyhbTkgyXSlcYyhbY0hdMSlbY0hdW2NIXVtjSF1jMS1uMm5jKEMoRikoRilGKVtjSF1jMkMoPU8pW05IXWMzYyhGKVtjSF1jKFtjSF1bY0hdMyktbjRbY0hdbmMoYzQ1KVtjSF1bY0hdW2NIXVtjSF01

> <s_epik_cmdline>
J2VwaWtfcHl0aG9uJywgJy1waHQnLCAnMC41JywgJy1waCcsICc3LjUnLCAnLW50JywgJy1tYScsICcyMDAnLCAnLWltYWUnLCAnPGluZmlsZS5tYWU+JywgJy1vbWFlJywgJzxvdXRmaWxlLm1hZT4n

> <r_lp_tautomer_probability>
1

> <r_epik_Ionization_Penalty>
  0.0112

> <r_epik_Ionization_Penalty_Charging>
  0.0010

> <r_epik_Ionization_Penalty_Neutral>
  0.0102

> <r_epik_State_Penalty>
  0.0078

> <r_epik_Charging_Adjusted_Penalty>
0.00877873498810205

> <i_epik_Tot_Q>
1

> <i_epik_Tot_abs_Q>
1

> <s_epik_Chemistry_Notes>
This compound has an imine and may undergo hydrolysis.

> <s_lp_Force_Field>
OPLS3e

> <r_lp_Energy>
50.333454

> <b_lp_Chiralities_Consistent>
1

> <s_lp_Variant>
sdf/actives_sanitized.sdf:3-1

$$$$
sdf/actives_sanitized.sdf:4
                    3D
 Schrodinger Suite 2020-1.
 54 58  0  0  1  0            999 V2000
    0.0558   -0.0847    0.0866 C   0  0  0  0  0  0
   -0.6192    1.1273    0.2154 N   0  0  0  0  0  0
   -1.9541    0.9278    0.2281 N   0  0  0  0  0  0
   -2.1590   -0.3684    0.2699 C   0  0  0  0  0  0
   -0.9441   -1.0469    0.1735 C   0  0  0  0  0  0
    7.2983   -3.1557    0.0926 N   0  0  0  0  0  0
    9.1696   -4.2829    0.7164 N   0  0  0  0  0  0
    1.4572   -0.2936   -0.2017 C   0  0  0  0  0  0
    7.9165   -4.0189    0.9797 C   0  0  0  0  0  0
   -3.5686   -0.9236    0.3541 C   0  0  0  0  0  0
    9.4237   -3.5632   -0.4163 C   0  0  0  0  0  0
    8.2742   -2.8390   -0.8433 C   0  0  0  0  0  0
    5.9468   -2.7456    0.1392 C   0  0  0  0  0  0
    1.9645   -1.4120    0.3582 N   0  0  0  0  0  0
   -0.1357    2.4593    0.0663 C   0  0  0  0  0  0
    5.2150   -2.5586   -1.0403 C   0  0  0  0  0  0
    2.8977    4.4977    1.0884 C   0  0  0  0  0  0
    3.2976   -1.8285    0.2487 C   0  0  0  0  0  0
    3.8926   -2.1163   -0.9904 C   0  0  0  0  0  0
    1.0907    2.8313    0.6352 C   0  0  0  0  0  0
    1.6078    4.1310    0.4967 C   0  0  0  0  0  0
   10.5903   -3.5166   -1.0682 N   0  0  0  0  0  0
    3.6620    5.3894    0.4693 N   0  3  0  0  0  0
    2.0988    0.4912   -0.9034 O   0  0  0  0  0  0
    5.3421   -2.4721    1.3728 C   0  0  0  0  0  0
    4.0212   -2.0281    1.4270 C   0  0  0  0  0  0
   -4.2537   -0.6627   -0.7591 F   0  0  0  0  0  0
   -3.5621   -2.2462    0.5224 F   0  0  0  0  0  0
   -4.2373   -0.3943    1.3791 F   0  0  0  0  0  0
    3.2706    3.9279    2.2283 N   0  0  0  0  0  0
    3.1991   -1.9830   -2.1459 F   0  0  0  0  0  0
   -0.8734    3.4231   -0.6365 C   0  0  0  0  0  0
    8.3272   -2.0220   -1.9826 C   0  0  0  0  0  0
    0.8478    5.0653   -0.2264 C   0  0  0  0  0  0
   -0.3809    4.7167   -0.7833 C   0  0  0  0  0  0
   10.6338   -2.7294   -2.1753 C   0  0  0  0  0  0
    9.5532   -1.9849   -2.6512 C   0  0  0  0  0  0
   -0.8172   -2.1189    0.1225 H   0  0  0  0  0  0
    7.3557   -4.4308    1.8062 H   0  0  0  0  0  0
    1.3686   -1.9581    0.9631 H   0  0  0  0  0  0
    5.6536   -2.7792   -2.0021 H   0  0  0  0  0  0
    1.6474    2.0953    1.1981 H   0  0  0  0  0  0
    4.5547    5.6483    0.8634 H   0  0  0  0  0  0
    5.8907   -2.5954    2.2955 H   0  0  0  0  0  0
    3.5695   -1.8283    2.3883 H   0  0  0  0  0  0
    4.1564    4.1705    2.6471 H   0  0  0  0  0  0
    2.6636    3.2548    2.6733 H   0  0  0  0  0  0
   -1.8240    3.1758   -1.0871 H   0  0  0  0  0  0
    7.4839   -1.4440   -2.3298 H   0  0  0  0  0  0
    1.1968    6.0798   -0.3580 H   0  0  0  0  0  0
   -0.9524    5.4509   -1.3323 H   0  0  0  0  0  0
   11.5814   -2.6980   -2.6929 H   0  0  0  0  0  0
    9.6667   -1.3761   -3.5364 H   0  0  0  0  0  0
    3.3511    5.7970   -0.4004 H   0  0  0  0  0  0
  1  2  1  0  0  0
  1  5  2  0  0  0
  1  8  1  0  0  0
  2  3  1  0  0  0
  2 15  1  0  0  0
  3  4  2  0  0  0
  4  5  1  0  0  0
  4 10  1  0  0  0
  5 38  1  0  0  0
  6 13  1  0  0  0
  6  9  1  0  0  0
  6 12  1  0  0  0
  7  9  2  0  0  0
  7 11  1  0  0  0
  8 14  1  0  0  0
  8 24  2  0  0  0
  9 39  1  0  0  0
 10 27  1  0  0  0
 10 28  1  0  0  0
 10 29  1  0  0  0
 11 12  2  0  0  0
 11 22  1  0  0  0
 12 33  1  0  0  0
 13 25  2  0  0  0
 13 16  1  0  0  0
 14 18  1  0  0  0
 14 40  1  0  0  0
 15 20  2  0  0  0
 15 32  1  0  0  0
 16 19  2  0  0  0
 16 41  1  0  0  0
 17 21  1  0  0  0
 17 23  2  0  0  0
 17 30  1  0  0  0
 18 19  1  0  0  0
 18 26  2  0  0  0
 19 31  1  0  0  0
 20 21  1  0  0  0
 20 42  1  0  0  0
 21 34  2  0  0  0
 22 36  2  0  0  0
 23 43  1  0  0  0
 23 54  1  0  0  0
 25 26  1  0  0  0
 25 44  1  0  0  0
 26 45  1  0  0  0
 30 46  1  0  0  0
 30 47  1  0  0  0
 32 35  2  0  0  0
 32 48  1  0  0  0
 33 37  2  0  0  0
 33 49  1  0  0  0
 34 35  1  0  0  0
 34 50  1  0  0  0
 35 51  1  0  0  0
 36 37  1  0  0  0
 36 52  1  0  0  0
 37 53  1  0  0  0
M  CHG  1  23   1
M  END
> <chembl_id>
CHEMBL185301

> <chembl_pref_name>
None

> <s_m_source_file>
sdf/actives_sanitized.sdf

> <i_m_source_file_index>
4

> <i_lp_mmshare_version>
49012

> <i_m_ct_stereo_status>
1

> <i_f3d_flags>
0

> <s_epik_input>
W2NIXTFbY0hdW2NIXWMoL0MoPU4vW0hdKVtOSDJdKVtjSF1jMS1uKG5jKFtjSF0yKUMoRikoRilGKWMyQyg9TylbTkhdYyhbY0hdW2NIXTMpYyhGKVtjSF1jMy1uKFtjSF1uNCljKGM0NSlbY0hdW2NIXVtjSF1uNQ==

> <s_epik_cmdline>
J2VwaWtfcHl0aG9uJywgJy1waHQnLCAnMC41JywgJy1waCcsICc3LjUnLCAnLW50JywgJy1tYScsICcyMDAnLCAnLWltYWUnLCAnPGluZmlsZS5tYWU+JywgJy1vbWFlJywgJzxvdXRmaWxlLm1hZT4n

> <r_lp_tautomer_probability>
1

> <r_epik_Ionization_Penalty>
  0.0010

> <r_epik_Ionization_Penalty_Charging>
  0.0010

> <r_epik_Ionization_Penalty_Neutral>
  0.0000

> <r_epik_State_Penalty>
 -0.0000

> <r_epik_Charging_Adjusted_Penalty>
0.000984797499885888

> <i_epik_Tot_Q>
1

> <i_epik_Tot_abs_Q>
1

> <s_epik_Chemistry_Notes>
This compound has an imine and may undergo hydrolysis.

> <s_lp_Force_Field>
OPLS3e

> <r_lp_Energy>
50.217177

> <b_lp_Chiralities_Consistent>
1

> <s_lp_Variant>
sdf/actives_sanitized.sdf:4-1

$$$$
sdf/actives_sanitized.sdf:5
                    3D
 Schrodinger Suite 2020-1.
 45 48  0  0  1  0            999 V2000
   -0.0309    0.1912    0.0722 O   0  0  0  0  0  0
   -0.7468    1.4221    0.0359 C   0  0  0  0  0  0
   -2.2360    1.1241    0.0429 C   0  0  0  0  0  0
   -2.9194    0.9826    1.2544 C   0  0  0  0  0  0
   -4.9781    0.5593    0.0571 C   0  0  0  0  0  0
   -4.2980    0.6954   -1.1569 C   0  0  0  0  0  0
   -4.2861    0.7025    1.2609 C   0  0  0  0  0  0
   -2.9307    0.9759   -1.1618 C   0  0  0  0  0  0
    4.3510    2.5614   -0.1109 C   0  0  0  0  0  0
    3.9710    3.6134   -0.9500 C   0  0  0  0  0  0
    4.7095    4.7895   -1.0398 C   0  0  0  0  0  0
    5.5102    2.6894    0.6663 C   0  0  0  0  0  0
    6.2862    3.8596    0.6058 C   0  0  0  0  0  0
    5.8661    4.9064   -0.2598 C   0  0  0  0  0  0
    6.9646    6.2739   -0.1953 S   0  0  0  0  0  0
    7.9765    5.4528    0.9874 C   0  0  0  0  0  0
    7.4831    4.1934    1.2979 C   0  0  0  0  0  0
    9.1228    6.0470    1.4816 C   0  0  0  0  0  0
    9.1411    7.3590    1.6794 N   0  0  0  0  0  0
   10.1708    5.2788    1.7508 N   0  3  0  0  0  0
    3.5334    1.3161   -0.0453 C   0  0  0  0  0  0
    4.1460    0.0563   -0.0186 C   0  0  0  0  0  0
    1.9934   -1.0287    0.0697 C   0  0  0  0  0  0
    1.3500    0.2090    0.0433 C   0  0  0  0  0  0
    3.3834   -1.1082    0.0390 C   0  0  0  0  0  0
    2.1322    1.3758   -0.0114 C   0  0  0  0  0  0
   -4.9553    0.5571   -2.3319 F   0  0  0  0  0  0
   -6.6707    0.2133    0.0816 Cl  0  0  0  0  0  0
   -0.4943    1.9938   -0.8596 H   0  0  0  0  0  0
   -0.4943    2.0421    0.8985 H   0  0  0  0  0  0
   -2.3928    1.0874    2.1920 H   0  0  0  0  0  0
   -4.8061    0.5956    2.2018 H   0  0  0  0  0  0
   -2.4112    1.0759   -2.1039 H   0  0  0  0  0  0
    3.0829    3.5190   -1.5583 H   0  0  0  0  0  0
    4.3954    5.5866   -1.6981 H   0  0  0  0  0  0
    5.8082    1.8841    1.3220 H   0  0  0  0  0  0
    7.9593    3.5265    2.0014 H   0  0  0  0  0  0
    9.9741    7.8034    2.0367 H   0  0  0  0  0  0
    8.3201    7.9079    1.4695 H   0  0  0  0  0  0
   11.0191    5.6922    2.1090 H   0  0  0  0  0  0
    5.2227   -0.0277   -0.0502 H   0  0  0  0  0  0
    1.4100   -1.9370    0.1131 H   0  0  0  0  0  0
    3.8698   -2.0723    0.0564 H   0  0  0  0  0  0
    1.6577    2.3452   -0.0235 H   0  0  0  0  0  0
   10.1184    4.2847    1.5829 H   0  0  0  0  0  0
  1 24  1  0  0  0
  1  2  1  0  0  0
  2  3  1  0  0  0
  2 29  1  0  0  0
  2 30  1  0  0  0
  3  8  2  0  0  0
  3  4  1  0  0  0
  4  7  2  0  0  0
  4 31  1  0  0  0
  5  7  1  0  0  0
  5  6  2  0  0  0
  5 28  1  0  0  0
  6  8  1  0  0  0
  6 27  1  0  0  0
  7 32  1  0  0  0
  8 33  1  0  0  0
  9 10  2  0  0  0
  9 21  1  0  0  0
  9 12  1  0  0  0
 10 11  1  0  0  0
 10 34  1  0  0  0
 11 14  2  0  0  0
 11 35  1  0  0  0
 12 13  2  0  0  0
 12 36  1  0  0  0
 13 17  1  0  0  0
 13 14  1  0  0  0
 14 15  1  0  0  0
 15 16  1  0  0  0
 16 17  2  0  0  0
 16 18  1  0  0  0
 17 37  1  0  0  0
 18 19  1  0  0  0
 18 20  2  0  0  0
 19 38  1  0  0  0
 19 39  1  0  0  0
 20 40  1  0  0  0
 20 45  1  0  0  0
 21 22  2  0  0  0
 21 26  1  0  0  0
 22 25  1  0  0  0
 22 41  1  0  0  0
 23 24  1  0  0  0
 23 25  2  0  0  0
 23 42  1  0  0  0
 24 26  2  0  0  0
 25 43  1  0  0  0
 26 44  1  0  0  0
M  CHG  1  20   1
M  END
> <chembl_id>
CHEMBL596766

> <chembl_pref_name>
None

> <s_m_source_file>
sdf/actives_sanitized.sdf

> <i_m_source_file_index>
5

> <i_lp_mmshare_version>
49012

> <i_m_ct_stereo_status>
1

> <i_f3d_flags>
0

> <s_epik_input>
W2NIXTFjKEYpYyhDbClbY0hdW2NIXWMxW0NIMl1PYyhbY0hdMilbY0hdW2NIXVtjSF1jMi1jKFtjSF0zKVtjSF1bY0hdYyhjMzQpc2MoW2NIXTQpL0MoW05IMl0pPU4vW0hd

> <s_epik_cmdline>
J2VwaWtfcHl0aG9uJywgJy1waHQnLCAnMC41JywgJy1waCcsICc3LjUnLCAnLW50JywgJy1tYScsICcyMDAnLCAnLWltYWUnLCAnPGluZmlsZS5tYWU+JywgJy1vbWFlJywgJzxvdXRmaWxlLm1hZT4n

> <r_lp_tautomer_probability>
1

> <r_epik_Ionization_Penalty>
  0.0095

> <r_epik_Ionization_Penalty_Charging>
  0.0095

> <r_epik_Ionization_Penalty_Neutral>
  0.0000

> <r_epik_State_Penalty>
 -0.0000

> <r_epik_Charging_Adjusted_Penalty>
0.00945881282357717

> <i_epik_Tot_Q>
1

> <i_epik_Tot_abs_Q>
1

> <s_epik_Chemistry_Notes>
This compound has an imine and may undergo hydrolysis.

> <s_lp_Force_Field>
OPLS3e

> <r_lp_Energy>
32.844301

> <b_lp_Chiralities_Consistent>
1

> <s_lp_Variant>
sdf/actives_sanitized.sdf:5-1

$$$$
sdf/actives_sanitized.sdf:6
                    3D
 Schrodinger Suite 2020-1.
 58 62  0  0  1  0            999 V2000
   -3.0473   -2.9399   -4.3663 C   0  0  0  0  0  0
   -1.7343   -3.0494   -4.8472 C   0  0  0  0  0  0
   -0.6628   -2.4724   -4.1624 C   0  0  0  0  0  0
   -3.3403   -2.2412   -3.1884 C   0  0  0  0  0  0
   -1.4115   -3.9083   -6.3127 Cl  0  0  0  0  0  0
   -2.2615   -1.6693   -2.5099 C   0  0  0  0  0  0
   -0.9291   -1.7733   -2.9779 C   0  0  0  0  0  0
   -0.0592   -1.1260   -2.1408 N   0  0  0  0  0  0
   -0.8115   -0.6434   -1.1785 C   0  0  0  0  0  0
   -2.1462   -0.9327   -1.3538 N   0  0  0  0  0  0
   -0.3152    0.1942   -0.0025 C   0  0  1  0  0  0
    1.1597   -0.1232    0.3691 C   0  0  0  0  0  0
    1.6616    0.5874    1.5489 N   0  0  0  0  0  0
    2.4742    1.6593    1.5213 C   0  0  0  0  0  0
    2.9458    2.1278    2.8708 C   0  0  0  0  0  0
    2.8489    2.2295    0.4964 O   0  0  0  0  0  0
   -0.5632    1.6870   -0.2416 C   0  0  0  0  0  0
    0.0388    2.3461   -1.3215 C   0  0  0  0  0  0
   -0.1846    3.7067   -1.5328 C   0  0  0  0  0  0
   -1.0165    4.4190   -0.6697 C   0  0  0  0  0  0
   -1.6233    3.7712    0.4058 C   0  0  0  0  0  0
   -1.3952    2.4116    0.6209 C   0  0  0  0  0  0
    4.0673    1.5309    3.4797 C   0  0  0  0  0  0
    4.5108    1.9794    4.7242 C   0  0  0  0  0  0
    3.8587    3.0257    5.3846 C   0  0  0  0  0  0
    2.7445    3.6188    4.7781 C   0  0  0  0  0  0
    2.2873    3.1807    3.5348 C   0  0  0  0  0  0
    0.9054    3.9823    2.8609 Cl  0  0  0  0  0  0
    4.3288    3.4734    6.6443 N   0  0  0  0  0  0
    5.1257    2.8323    7.5601 C   0  0  0  0  0  0
    5.3361    3.5893    8.6051 N   0  0  0  0  0  0
    4.6630    4.6867    8.2967 C   0  0  0  0  0  0
    4.0284    4.6825    7.1428 N   0  0  0  0  0  0
    4.9478    0.2351    2.7342 Cl  0  0  0  0  0  0
    4.6042    5.8720    9.2341 C   0  0  0  0  0  0
   -2.4289    4.4617    1.2440 F   0  0  0  0  0  0
   -4.0808   -3.5102   -5.0669 O   0  0  0  0  0  0
   -4.4666   -4.7934   -4.5924 C   0  0  0  0  0  0
    0.3455   -2.5620   -4.5399 H   0  0  0  0  0  0
   -4.3548   -2.1541   -2.8282 H   0  0  0  0  0  0
   -0.9048   -0.0922    0.8709 H   0  0  0  0  0  0
    1.2552   -1.1895    0.5782 H   0  0  0  0  0  0
    1.8101    0.0553   -0.4907 H   0  0  0  0  0  0
    1.4235    0.1895    2.4457 H   0  0  0  0  0  0
    0.6871    1.8048   -1.9955 H   0  0  0  0  0  0
    0.2876    4.2082   -2.3646 H   0  0  0  0  0  0
   -1.1895    5.4725   -0.8337 H   0  0  0  0  0  0
   -1.8678    1.9250    1.4616 H   0  0  0  0  0  0
    5.3785    1.5096    5.1640 H   0  0  0  0  0  0
    2.2221    4.4277    5.2689 H   0  0  0  0  0  0
    5.4928    1.8311    7.3910 H   0  0  0  0  0  0
    3.8305    6.5971    8.9780 H   0  0  0  0  0  0
    5.5714    6.3654    9.3339 H   0  0  0  0  0  0
    4.3699    5.5366   10.2450 H   0  0  0  0  0  0
   -5.2638   -5.1878   -5.2223 H   0  0  0  0  0  0
   -4.8445   -4.7452   -3.5697 H   0  0  0  0  0  0
   -3.6359   -5.5007   -4.6252 H   0  0  0  0  0  0
   -2.8701   -0.6313   -0.7177 H   0  0  0  0  0  0
  1  2  2  0  0  0
  1  4  1  0  0  0
  1 37  1  0  0  0
  2  3  1  0  0  0
  2  5  1  0  0  0
  3  7  2  0  0  0
  3 39  1  0  0  0
  4  6  2  0  0  0
  4 40  1  0  0  0
  6  7  1  0  0  0
  6 10  1  0  0  0
  7  8  1  0  0  0
  8  9  2  0  0  0
  9 10  1  0  0  0
  9 11  1  0  0  0
 10 58  1  0  0  0
 11 12  1  0  0  0
 11 17  1  0  0  0
 11 41  1  0  0  0
 12 13  1  0  0  0
 12 42  1  0  0  0
 12 43  1  0  0  0
 13 14  1  0  0  0
 13 44  1  0  0  0
 14 15  1  0  0  0
 14 16  2  0  0  0
 15 23  2  0  0  0
 15 27  1  0  0  0
 17 18  2  0  0  0
 17 22  1  0  0  0
 18 19  1  0  0  0
 18 45  1  0  0  0
 19 20  2  0  0  0
 19 46  1  0  0  0
 20 21  1  0  0  0
 20 47  1  0  0  0
 21 22  2  0  0  0
 21 36  1  0  0  0
 22 48  1  0  0  0
 23 24  1  0  0  0
 23 34  1  0  0  0
 24 25  2  0  0  0
 24 49  1  0  0  0
 25 26  1  0  0  0
 25 29  1  0  0  0
 26 27  2  0  0  0
 26 50  1  0  0  0
 27 28  1  0  0  0
 29 30  1  0  0  0
 29 33  1  0  0  0
 30 31  2  0  0  0
 30 51  1  0  0  0
 31 32  1  0  0  0
 32 33  2  0  0  0
 32 35  1  0  0  0
 35 52  1  0  0  0
 35 53  1  0  0  0
 35 54  1  0  0  0
 37 38  1  0  0  0
 38 55  1  0  0  0
 38 56  1  0  0  0
 38 57  1  0  0  0
M  END
> <chembl_id>
CHEMBL3627894

> <chembl_pref_name>
None

> <i_m_ct_stereo_status>
1

> <s_m_source_file>
sdf/actives_sanitized.sdf

> <i_m_source_file_index>
6

> <i_lp_mmshare_version>
49012

> <i_f3d_flags>
0

> <s_epik_input>
W0NIM11PYyhbY0hdMSljKENsKVtjSF1jKGMxMilbbkhdYyhuMilbQ0BIXShjM1tjSF1bY0hdW2NIXWMoRilbY0hdMylbQ0gyXVtOSF1DKD1PKWM0YyhDbClbY0hdYyhbY0hdYzRDbCktbjVbY0hdbmMobjUpW0NIM10=

> <s_epik_cmdline>
J2VwaWtfcHl0aG9uJywgJy1waHQnLCAnMC41JywgJy1waCcsICc3LjUnLCAnLW50JywgJy1tYScsICcyMDAnLCAnLWltYWUnLCAnPGluZmlsZS5tYWU+JywgJy1vbWFlJywgJzxvdXRmaWxlLm1hZT4n

> <r_lp_tautomer_probability>
1

> <r_epik_Ionization_Penalty>
  0.0047

> <r_epik_Ionization_Penalty_Charging>
  0.0000

> <r_epik_Ionization_Penalty_Neutral>
  0.0047

> <r_epik_State_Penalty>
 -0.0000

> <r_epik_Charging_Adjusted_Penalty>
0

> <i_epik_Tot_Q>
0

> <i_epik_Tot_abs_Q>
0

> <s_lp_Force_Field>
OPLS3e

> <r_lp_Energy>
34.980951

> <b_lp_Chiralities_Consistent>
1

> <s_lp_Variant>
sdf/actives_sanitized.sdf:6-1

$$$$
sdf/actives_sanitized.sdf:7
                    3D
 Schrodinger Suite 2020-1.
 57 61  0  0  1  0            999 V2000
   -1.3418   -2.8295   -5.2310 C   0  0  0  0  0  0
   -2.4597   -3.2865   -4.5060 C   0  0  0  0  0  0
   -2.6483   -2.9415   -3.1606 C   0  0  0  0  0  0
   -0.3798   -2.0134   -4.6247 C   0  0  0  0  0  0
   -1.1469   -3.2097   -6.6933 C   0  0  0  0  0  0
   -3.5034   -4.1770   -5.1688 C   0  0  0  0  0  0
   -0.5495   -1.6583   -3.2812 C   0  0  0  0  0  0
   -1.6792   -2.1271   -2.5720 C   0  0  0  0  0  0
   -1.5217   -1.5925   -1.3144 N   0  0  0  0  0  0
   -0.3535   -0.8637   -1.3176 C   0  0  0  0  0  0
    0.2478   -0.8786   -2.4850 N   0  0  0  0  0  0
    0.1202   -0.0957   -0.0861 C   0  0  1  0  0  0
    1.6645    0.0713   -0.0432 C   0  0  0  0  0  0
    2.1649    0.7118    1.1769 N   0  0  0  0  0  0
    2.5167    2.0053    1.2883 C   0  0  0  0  0  0
    2.9805    2.4123    2.6576 C   0  0  0  0  0  0
    2.4714    2.8273    0.3729 O   0  0  0  0  0  0
   -0.6186    1.2387    0.0690 C   0  0  0  0  0  0
   -1.2854    1.5328    1.2633 C   0  0  0  0  0  0
   -1.9387    2.7526    1.4171 C   0  0  0  0  0  0
   -1.9224    3.6800    0.3781 C   0  0  0  0  0  0
   -1.2602    3.3982   -0.8143 C   0  0  0  0  0  0
   -0.6086    2.1780   -0.9691 C   0  0  0  0  0  0
    2.0639    2.9745    3.5596 C   0  0  0  0  0  0
    2.4771    3.3667    4.8320 C   0  0  0  0  0  0
    3.8096    3.2069    5.2257 C   0  0  0  0  0  0
    4.7261    2.6484    4.3278 C   0  0  0  0  0  0
    4.3229    2.2528    3.0509 C   0  0  0  0  0  0
    5.5218    1.5748    1.9969 Cl  0  0  0  0  0  0
    4.2251    3.6072    6.5143 N   0  0  0  0  0  0
    3.6901    4.5771    7.3342 C   0  0  0  0  0  0
    4.3370    4.6790    8.4682 N   0  0  0  0  0  0
    5.3612    3.7388    8.4298 N   0  0  0  0  0  0
    5.2698    3.1286    7.2748 C   0  0  0  0  0  0
    0.7649    3.1490    3.2167 F   0  0  0  0  0  0
   -3.5056   -3.2902   -2.6032 H   0  0  0  0  0  0
    0.4782   -1.6618   -5.1794 H   0  0  0  0  0  0
   -0.2350   -2.7855   -7.1158 H   0  0  0  0  0  0
   -1.9891   -2.8608   -7.2913 H   0  0  0  0  0  0
   -1.0941   -4.2935   -6.7998 H   0  0  0  0  0  0
   -4.3113   -4.4504   -4.4887 H   0  0  0  0  0  0
   -3.0424   -5.0968   -5.5301 H   0  0  0  0  0  0
   -3.9440   -3.6712   -6.0284 H   0  0  0  0  0  0
   -2.1198   -1.6832   -0.5059 H   0  0  0  0  0  0
   -0.1320   -0.7033    0.7854 H   0  0  0  0  0  0
    2.1348   -0.9109   -0.1053 H   0  0  0  0  0  0
    2.0097    0.6099   -0.9291 H   0  0  0  0  0  0
    2.2846    0.1111    1.9794 H   0  0  0  0  0  0
   -1.2940    0.8223    2.0770 H   0  0  0  0  0  0
   -2.4510    2.9807    2.3401 H   0  0  0  0  0  0
   -2.4258    4.6278    0.4989 H   0  0  0  0  0  0
   -1.2484    4.1242   -1.6136 H   0  0  0  0  0  0
   -0.0883    1.9676   -1.8923 H   0  0  0  0  0  0
    1.7488    3.7908    5.5079 H   0  0  0  0  0  0
    5.7617    2.5250    4.6101 H   0  0  0  0  0  0
    2.8389    5.1630    7.0209 H   0  0  0  0  0  0
    5.9037    2.3329    6.9127 H   0  0  0  0  0  0
  1  2  2  0  0  0
  1  4  1  0  0  0
  1  5  1  0  0  0
  2  3  1  0  0  0
  2  6  1  0  0  0
  3  8  2  0  0  0
  3 36  1  0  0  0
  4  7  2  0  0  0
  4 37  1  0  0  0
  5 38  1  0  0  0
  5 39  1  0  0  0
  5 40  1  0  0  0
  6 41  1  0  0  0
  6 42  1  0  0  0
  6 43  1  0  0  0
  7  8  1  0  0  0
  7 11  1  0  0  0
  8  9  1  0  0  0
  9 10  1  0  0  0
  9 44  1  0  0  0
 10 11  2  0  0  0
 10 12  1  0  0  0
 12 13  1  0  0  0
 12 18  1  0  0  0
 12 45  1  0  0  0
 13 14  1  0  0  0
 13 46  1  0  0  0
 13 47  1  0  0  0
 14 15  1  0  0  0
 14 48  1  0  0  0
 15 16  1  0  0  0
 15 17  2  0  0  0
 16 24  2  0  0  0
 16 28  1  0  0  0
 18 19  2  0  0  0
 18 23  1  0  0  0
 19 20  1  0  0  0
 19 49  1  0  0  0
 20 21  2  0  0  0
 20 50  1  0  0  0
 21 22  1  0  0  0
 21 51  1  0  0  0
 22 23  2  0  0  0
 22 52  1  0  0  0
 23 53  1  0  0  0
 24 25  1  0  0  0
 24 35  1  0  0  0
 25 26  2  0  0  0
 25 54  1  0  0  0
 26 27  1  0  0  0
 26 30  1  0  0  0
 27 28  2  0  0  0
 27 55  1  0  0  0
 28 29  1  0  0  0
 30 31  1  0  0  0
 30 34  1  0  0  0
 31 32  2  0  0  0
 31 56  1  0  0  0
 32 33  1  0  0  0
 33 34  2  0  0  0
 34 57  1  0  0  0
M  END
> <chembl_id>
CHEMBL3627865

> <chembl_pref_name>
None

> <i_m_ct_stereo_status>
1

> <s_m_source_file>
sdf/actives_sanitized.sdf

> <i_m_source_file_index>
7

> <i_lp_mmshare_version>
49012

> <i_f3d_flags>
0

> <s_epik_input>
W2NIXTFjKFtDSDNdKWMoW0NIM10pW2NIXWMoYzEyKVtuSF1jKG4yKVtDQEhdKGMzW2NIXVtjSF1bY0hdW2NIXVtjSF0zKVtDSDJdW05IXUMoPU8pYzRjKEYpW2NIXWMoW2NIXWM0Q2wpLW41W2NIXW5uW2NIXTU=

> <s_epik_cmdline>
J2VwaWtfcHl0aG9uJywgJy1waHQnLCAnMC41JywgJy1waCcsICc3LjUnLCAnLW50JywgJy1tYScsICcyMDAnLCAnLWltYWUnLCAnPGluZmlsZS5tYWU+JywgJy1vbWFlJywgJzxvdXRmaWxlLm1hZT4n

> <r_lp_tautomer_probability>
1

> <r_epik_Ionization_Penalty>
  0.0167

> <r_epik_Ionization_Penalty_Charging>
  0.0000

> <r_epik_Ionization_Penalty_Neutral>
  0.0167

> <r_epik_State_Penalty>
  0.0132

> <r_epik_Charging_Adjusted_Penalty>
0.013171618342122

> <i_epik_Tot_Q>
0

> <i_epik_Tot_abs_Q>
0

> <s_lp_Force_Field>
OPLS3e

> <r_lp_Energy>
29.627986

> <b_lp_Chiralities_Consistent>
1

> <s_lp_Variant>
sdf/actives_sanitized.sdf:7-1

$$$$
sdf/actives_sanitized.sdf:8
                    3D
 Schrodinger Suite 2020-1.
 65 70  0  0  1  0            999 V2000
   -0.6243    1.5573    0.0107 C   0  0  0  0  0  0
   -1.7360    1.9403    0.7793 C   0  0  0  0  0  0
   -2.2332    3.2404    0.7237 C   0  0  0  0  0  0
   -1.6390    4.1802   -0.1134 C   0  0  0  0  0  0
   -0.5494    3.8332   -0.9112 C   0  0  0  0  0  0
   -0.0621    2.5169   -0.8509 C   0  0  0  0  0  0
   -0.3663   -5.5773   -3.5305 C   0  0  0  0  0  0
   -0.1237   -5.5149   -2.1591 C   0  0  0  0  0  0
   -0.7017   -3.1652   -3.5884 C   0  0  0  0  0  0
   -0.6512   -4.4043   -4.2336 C   0  0  0  0  0  0
   -0.4579   -3.0976   -2.2037 C   0  0  0  0  0  0
   -0.1739   -4.2981   -1.5314 N   0  0  0  0  0  0
    0.0348   -4.1070   -0.2107 N   0  0  0  0  0  0
   -0.4106   -2.1060   -1.1921 C   0  0  0  0  0  0
   -0.1063   -2.8125   -0.0164 C   0  0  0  0  0  0
    0.0466   -2.1483    1.3450 C   0  0  0  0  0  0
   -0.5452   -0.7174    1.2771 C   0  0  0  0  0  0
   -0.0741    0.0985    0.0231 C   0  0  1  0  0  0
   -0.6633   -0.6018   -1.2431 C   0  0  0  0  0  0
    1.4045    0.1285   -0.0651 N   0  0  0  0  0  0
    2.2676    0.6858    0.8110 C   0  0  0  0  0  0
    3.7288    0.4437    0.5181 C   0  0  0  0  0  0
    1.9170    1.3589    1.7812 O   0  0  0  0  0  0
    4.1531   -0.8431    0.1529 C   0  0  0  0  0  0
    5.4930   -1.1067   -0.1223 C   0  0  0  0  0  0
    6.4454   -0.0848   -0.0463 C   0  0  0  0  0  0
    6.0270    1.2060    0.3044 C   0  0  0  0  0  0
    4.6853    1.4786    0.5798 C   0  0  0  0  0  0
    4.2700    3.1198    0.9585 Cl  0  0  0  0  0  0
    7.8073   -0.3591   -0.3268 N   0  0  0  0  0  0
    8.3661   -1.4089   -1.0126 C   0  0  0  0  0  0
    9.6683   -1.2994   -1.0520 N   0  0  0  0  0  0
    9.8752   -0.1718   -0.3901 C   0  0  0  0  0  0
    8.8066    0.4409    0.0762 N   0  0  0  0  0  0
   11.2690    0.3655   -0.1526 C   0  0  0  0  0  0
   -0.3136   -6.9141   -4.2464 C   0  0  0  0  0  0
   -0.0249    4.8267   -1.7153 O   0  0  0  0  0  0
    1.1142    4.5386   -2.5192 C   0  0  0  0  0  0
   -2.2336    1.2465    1.4378 H   0  0  0  0  0  0
   -3.0817    3.5194    1.3309 H   0  0  0  0  0  0
   -2.0308    5.1863   -0.1459 H   0  0  0  0  0  0
    0.7688    2.2252   -1.4745 H   0  0  0  0  0  0
    0.1019   -6.3799   -1.5513 H   0  0  0  0  0  0
   -0.9261   -2.2705   -4.1501 H   0  0  0  0  0  0
   -0.8392   -4.4478   -5.2970 H   0  0  0  0  0  0
   -0.4542   -2.7205    2.1269 H   0  0  0  0  0  0
    1.1009   -2.0963    1.6194 H   0  0  0  0  0  0
   -1.6310   -0.8263    1.2573 H   0  0  0  0  0  0
   -0.3214   -0.1809    2.2003 H   0  0  0  0  0  0
   -0.2322   -0.1738   -2.1499 H   0  0  0  0  0  0
   -1.7387   -0.4292   -1.3145 H   0  0  0  0  0  0
    1.7967   -0.5835   -0.6635 H   0  0  0  0  0  0
    3.4465   -1.6593    0.0935 H   0  0  0  0  0  0
    5.7771   -2.1152   -0.3839 H   0  0  0  0  0  0
    6.7417    2.0150    0.3566 H   0  0  0  0  0  0
    7.7603   -2.1904   -1.4462 H   0  0  0  0  0  0
   11.3194    1.1171    0.6364 H   0  0  0  0  0  0
   11.7322    0.7366   -1.0671 H   0  0  0  0  0  0
   11.9261   -0.4397    0.1779 H   0  0  0  0  0  0
   -0.3927   -6.8050   -5.3288 H   0  0  0  0  0  0
   -1.1187   -7.5616   -3.8977 H   0  0  0  0  0  0
    0.6291   -7.4183   -4.0302 H   0  0  0  0  0  0
    1.4046    5.4351   -3.0668 H   0  0  0  0  0  0
    0.8992    3.7593   -3.2519 H   0  0  0  0  0  0
    1.9671    4.2333   -1.9106 H   0  0  0  0  0  0
  1  2  2  0  0  0
  1  6  1  0  0  0
  1 18  1  0  0  0
  2  3  1  0  0  0
  2 39  1  0  0  0
  3  4  2  0  0  0
  3 40  1  0  0  0
  4  5  1  0  0  0
  4 41  1  0  0  0
  5  6  2  0  0  0
  5 37  1  0  0  0
  6 42  1  0  0  0
  7  8  2  0  0  0
  7 10  1  0  0  0
  7 36  1  0  0  0
  8 12  1  0  0  0
  8 43  1  0  0  0
  9 11  1  0  0  0
  9 10  2  0  0  0
  9 44  1  0  0  0
 10 45  1  0  0  0
 11 12  1  0  0  0
 11 14  2  0  0  0
 12 13  1  0  0  0
 13 15  2  0  0  0
 14 15  1  0  0  0
 14 19  1  0  0  0
 15 16  1  0  0  0
 16 17  1  0  0  0
 16 46  1  0  0  0
 16 47  1  0  0  0
 17 18  1  0  0  0
 17 48  1  0  0  0
 17 49  1  0  0  0
 18 19  1  0  0  0
 18 20  1  0  0  0
 19 50  1  0  0  0
 19 51  1  0  0  0
 20 21  1  0  0  0
 20 52  1  0  0  0
 21 22  1  0  0  0
 21 23  2  0  0  0
 22 24  2  0  0  0
 22 28  1  0  0  0
 24 25  1  0  0  0
 24 53  1  0  0  0
 25 26  2  0  0  0
 25 54  1  0  0  0
 26 27  1  0  0  0
 26 30  1  0  0  0
 27 28  2  0  0  0
 27 55  1  0  0  0
 28 29  1  0  0  0
 30 31  1  0  0  0
 30 34  1  0  0  0
 31 32  2  0  0  0
 31 56  1  0  0  0
 32 33  1  0  0  0
 33 34  2  0  0  0
 33 35  1  0  0  0
 35 57  1  0  0  0
 35 58  1  0  0  0
 35 59  1  0  0  0
 36 60  1  0  0  0
 36 61  1  0  0  0
 36 62  1  0  0  0
 37 38  1  0  0  0
 38 63  1  0  0  0
 38 64  1  0  0  0
 38 65  1  0  0  0
M  END
> <chembl_id>
CHEMBL3628947

> <chembl_pref_name>
None

> <i_m_ct_stereo_status>
1

> <s_m_source_file>
sdf/actives_sanitized.sdf

> <i_m_source_file_index>
8

> <i_lp_mmshare_version>
49012

> <i_f3d_flags>
0

> <s_epik_input>
W2NIXTFbY0hdYyhbQ0gzXSlbY0hdbihjMTIpbmMzYzJbQ0gyXVtDQF0oW0NIMl1bQ0gyXTMpKGM0W2NIXVtjSF1bY0hdYyhbY0hdNClPW0NIM10pW05IXUMoPU8pYzVbY0hdW2NIXWMoW2NIXWM1Q2wpLW42W2NIXW5jKG42KVtDSDNd

> <s_epik_cmdline>
J2VwaWtfcHl0aG9uJywgJy1waHQnLCAnMC41JywgJy1waCcsICc3LjUnLCAnLW50JywgJy1tYScsICcyMDAnLCAnLWltYWUnLCAnPGluZmlsZS5tYWU+JywgJy1vbWFlJywgJzxvdXRmaWxlLm1hZT4n

> <r_lp_tautomer_probability>
1

> <r_epik_Ionization_Penalty>
  0.0001

> <r_epik_Ionization_Penalty_Charging>
  0.0000

> <r_epik_Ionization_Penalty_Neutral>
  0.0001

> <r_epik_State_Penalty>
 -0.0000

> <r_epik_Charging_Adjusted_Penalty>
0

> <i_epik_Tot_Q>
0

> <i_epik_Tot_abs_Q>
0

> <s_lp_Force_Field>
OPLS3e

> <r_lp_Energy>
47.009973

> <b_lp_Chiralities_Consistent>
1

> <s_lp_Variant>
sdf/actives_sanitized.sdf:8-1

$$$$
sdf/actives_sanitized.sdf:9
                    3D
 Schrodinger Suite 2020-1.
 55 59  0  0  1  0            999 V2000
   -0.4617    1.5993    0.1406 C   0  0  0  0  0  0
   -0.4590   -5.4637   -3.6276 C   0  0  0  0  0  0
   -0.3512   -5.4429   -2.2381 C   0  0  0  0  0  0
   -0.5977   -3.0320   -3.6608 C   0  0  0  0  0  0
   -0.5813   -4.2608   -4.3273 C   0  0  0  0  0  0
   -0.4875   -3.0063   -2.2577 C   0  0  0  0  0  0
   -0.3657   -4.2363   -1.5896 N   0  0  0  0  0  0
   -0.2733   -4.0855   -0.2505 N   0  0  0  0  0  0
   -0.4628   -2.0386   -1.2232 C   0  0  0  0  0  0
   -0.3261   -2.7871   -0.0397 C   0  0  0  0  0  0
   -0.2496   -2.1552    1.3453 C   0  0  0  0  0  0
   -0.7333   -0.6896    1.2321 C   0  0  0  0  0  0
   -0.0406    0.0957    0.0732 C   0  0  1  0  0  0
   -0.5889   -0.5155   -1.2567 C   0  0  0  0  0  0
    1.4369    0.0126    0.0690 N   0  0  0  0  0  0
    2.2915    0.3803    1.0425 C   0  0  0  0  0  0
    3.7432    0.2532    0.6714 C   0  0  0  0  0  0
    1.9610    0.8067    2.1488 O   0  0  0  0  0  0
    4.4344   -0.9553    0.8829 C   0  0  0  0  0  0
    5.7819   -1.0596    0.5372 C   0  0  0  0  0  0
    6.4685    0.0260   -0.0213 C   0  0  0  0  0  0
    5.7787    1.2247   -0.2322 C   0  0  0  0  0  0
    4.4309    1.3456    0.1078 C   0  0  0  0  0  0
    3.6602    2.8709   -0.1926 Cl  0  0  0  0  0  0
    7.8389   -0.0781   -0.3696 N   0  0  0  0  0  0
    8.7634    0.9106   -0.6007 C   0  0  0  0  0  0
    9.9289    0.3987   -0.8999 N   0  0  0  0  0  0
    9.6887   -0.9015   -0.8359 C   0  0  0  0  0  0
    8.4589   -1.2577   -0.5283 N   0  0  0  0  0  0
   10.7633   -1.9239   -1.1311 C   0  0  0  0  0  0
   -0.4512   -6.7905   -4.3636 C   0  0  0  0  0  0
    3.6710   -2.3542    1.5668 Cl  0  0  0  0  0  0
    0.1320    2.4007   -0.8673 O   0  0  0  0  0  0
   -1.5451    1.7052    0.0699 H   0  0  0  0  0  0
   -0.1737    2.0378    1.0967 H   0  0  0  0  0  0
   -0.2570   -6.3327   -1.6317 H   0  0  0  0  0  0
   -0.6937   -2.1133   -4.2202 H   0  0  0  0  0  0
   -0.6661   -4.2724   -5.4045 H   0  0  0  0  0  0
   -0.8654   -2.6953    2.0654 H   0  0  0  0  0  0
    0.7730   -2.1839    1.7200 H   0  0  0  0  0  0
   -1.8196   -0.6483    1.1308 H   0  0  0  0  0  0
   -0.5094   -0.2116    2.1865 H   0  0  0  0  0  0
   -0.0531   -0.1052   -2.1144 H   0  0  0  0  0  0
   -1.6365   -0.2481   -1.4042 H   0  0  0  0  0  0
    1.8372   -0.3749   -0.7726 H   0  0  0  0  0  0
    6.2910   -1.9966    0.7128 H   0  0  0  0  0  0
    6.2792    2.0760   -0.6697 H   0  0  0  0  0  0
    8.5081    1.9571   -0.5250 H   0  0  0  0  0  0
   10.3770   -2.9292   -1.3040 H   0  0  0  0  0  0
   11.5405   -1.9389   -0.3666 H   0  0  0  0  0  0
   11.2909   -1.6542   -2.0466 H   0  0  0  0  0  0
   -0.6337   -6.6709   -5.4323 H   0  0  0  0  0  0
   -1.2249   -7.4456   -3.9615 H   0  0  0  0  0  0
    0.5064   -7.2936   -4.2257 H   0  0  0  0  0  0
   -0.1487    3.3099   -0.7393 H   0  0  0  0  0  0
  1 13  1  0  0  0
  1 33  1  0  0  0
  1 34  1  0  0  0
  1 35  1  0  0  0
  2  3  2  0  0  0
  2  5  1  0  0  0
  2 31  1  0  0  0
  3  7  1  0  0  0
  3 36  1  0  0  0
  4  6  1  0  0  0
  4  5  2  0  0  0
  4 37  1  0  0  0
  5 38  1  0  0  0
  6  7  1  0  0  0
  6  9  2  0  0  0
  7  8  1  0  0  0
  8 10  2  0  0  0
  9 10  1  0  0  0
  9 14  1  0  0  0
 10 11  1  0  0  0
 11 12  1  0  0  0
 11 39  1  0  0  0
 11 40  1  0  0  0
 12 13  1  0  0  0
 12 41  1  0  0  0
 12 42  1  0  0  0
 13 14  1  0  0  0
 13 15  1  0  0  0
 14 43  1  0  0  0
 14 44  1  0  0  0
 15 16  1  0  0  0
 15 45  1  0  0  0
 16 17  1  0  0  0
 16 18  2  0  0  0
 17 19  2  0  0  0
 17 23  1  0  0  0
 19 20  1  0  0  0
 19 32  1  0  0  0
 20 21  2  0  0  0
 20 46  1  0  0  0
 21 22  1  0  0  0
 21 25  1  0  0  0
 22 23  2  0  0  0
 22 47  1  0  0  0
 23 24  1  0  0  0
 25 26  1  0  0  0
 25 29  1  0  0  0
 26 27  2  0  0  0
 26 48  1  0  0  0
 27 28  1  0  0  0
 28 29  2  0  0  0
 28 30  1  0  0  0
 30 49  1  0  0  0
 30 50  1  0  0  0
 30 51  1  0  0  0
 31 52  1  0  0  0
 31 53  1  0  0  0
 31 54  1  0  0  0
 33 55  1  0  0  0
M  END
> <chembl_id>
CHEMBL3628836

> <chembl_pref_name>
None

> <i_m_ct_stereo_status>
1

> <s_m_source_file>
sdf/actives_sanitized.sdf

> <i_m_source_file_index>
9

> <i_lp_mmshare_version>
49012

> <i_f3d_flags>
0

> <s_epik_input>
W2NIXTFbY0hdYyhbQ0gzXSlbY0hdbihjMTIpbmMzYzJbQ0gyXVtDQEBdKFtDSDJdW09IXSkoW0NIMl1bQ0gyXTMpW05IXUMoPU8pYzRjKENsKVtjSF1jKFtjSF1jNENsKS1uNVtjSF1uYyhuNSlbQ0gzXQ==

> <s_epik_cmdline>
J2VwaWtfcHl0aG9uJywgJy1waHQnLCAnMC41JywgJy1waCcsICc3LjUnLCAnLW50JywgJy1tYScsICcyMDAnLCAnLWltYWUnLCAnPGluZmlsZS5tYWU+JywgJy1vbWFlJywgJzxvdXRmaWxlLm1hZT4n

> <r_lp_tautomer_probability>
1

> <r_epik_Ionization_Penalty>
  0.0001

> <r_epik_Ionization_Penalty_Charging>
  0.0000

> <r_epik_Ionization_Penalty_Neutral>
  0.0001

> <r_epik_State_Penalty>
 -0.0000

> <r_epik_Charging_Adjusted_Penalty>
0

> <i_epik_Tot_Q>
0

> <i_epik_Tot_abs_Q>
0

> <s_lp_Force_Field>
OPLS3e

> <r_lp_Energy>
21.315258

> <b_lp_Chiralities_Consistent>
1

> <s_lp_Variant>
sdf/actives_sanitized.sdf:9-1

$$$$
sdf/actives_sanitized.sdf:10
                    3D
 Schrodinger Suite 2020-1.
 42 45  0  0  1  0            999 V2000
   -0.0537    0.0157   -0.0000 C   0  0  0  0  0  0
   -0.7534    1.2070   -0.0000 N   0  0  0  0  0  0
    1.4570   -0.0654    0.0000 C   0  0  0  0  0  0
   -0.8685   -1.0164   -0.0000 N   0  0  0  0  0  0
    2.1855   -1.2774    0.0000 C   0  0  0  0  0  0
   -2.0978    0.9171   -0.0000 C   0  0  0  0  0  0
   -2.1324   -0.4920   -0.0000 C   0  0  0  0  0  0
   -5.7607    1.8017    0.0000 C   0  0  0  0  0  0
    3.5927   -1.2716    0.0000 C   0  0  0  0  0  0
   -6.9279    1.1667   -0.0000 N   0  3  0  0  0  0
   -4.5015    1.0325    0.0000 C   0  0  0  0  0  0
   -3.2571    1.6974   -0.0000 C   0  0  0  0  0  0
    1.5396   -2.4910    0.0000 O   0  0  0  0  0  0
   -3.3649   -1.1509    0.0000 C   0  0  0  0  0  0
    4.3796   -2.5299    0.0000 C   0  0  0  0  0  0
   -4.5240   -0.3758    0.0000 C   0  0  0  0  0  0
   -5.7262    3.1298    0.0000 N   0  0  0  0  0  0
    2.1786    1.1390   -0.0000 C   0  0  0  0  0  0
    4.2713   -0.0516    0.0000 C   0  0  0  0  0  0
    3.5697    1.1479   -0.0000 C   0  0  0  0  0  0
    4.7519   -3.1257    1.2087 C   0  0  0  0  0  0
    4.7519   -3.1257   -1.2087 C   0  0  0  0  0  0
    5.4905   -4.3061   -1.2099 C   0  0  0  0  0  0
    5.4905   -4.3061    1.2099 C   0  0  0  0  0  0
    5.8572   -4.8910   -0.0000 C   0  0  0  0  0  0
   -6.9485    0.1574   -0.0000 H   0  0  0  0  0  0
   -3.1905    2.7748   -0.0000 H   0  0  0  0  0  0
    2.1477   -3.2339    0.0001 H   0  0  0  0  0  0
   -3.4208   -2.2299    0.0000 H   0  0  0  0  0  0
   -5.4668   -0.9016    0.0000 H   0  0  0  0  0  0
   -6.5880    3.6554    0.0000 H   0  0  0  0  0  0
   -4.8375    3.6082    0.0000 H   0  0  0  0  0  0
    1.6698    2.0917   -0.0000 H   0  0  0  0  0  0
    5.3519   -0.0322    0.0000 H   0  0  0  0  0  0
    4.1050    2.0861   -0.0000 H   0  0  0  0  0  0
    4.4687   -2.6737    2.1485 H   0  0  0  0  0  0
    4.4687   -2.6737   -2.1485 H   0  0  0  0  0  0
    5.7779   -4.7653   -2.1442 H   0  0  0  0  0  0
    5.7780   -4.7653    2.1442 H   0  0  0  0  0  0
    6.4313   -5.8059   -0.0000 H   0  0  0  0  0  0
   -7.7884    1.6943    0.0000 H   0  0  0  0  0  0
   -0.3031    2.1107   -0.0000 H   0  0  0  0  0  0
  1  2  1  0  0  0
  1  3  1  0  0  0
  1  4  2  0  0  0
  2  6  1  0  0  0
  2 42  1  0  0  0
  3  5  2  0  0  0
  3 18  1  0  0  0
  4  7  1  0  0  0
  5  9  1  0  0  0
  5 13  1  0  0  0
  6 12  2  0  0  0
  6  7  1  0  0  0
  7 14  2  0  0  0
  8 11  1  0  0  0
  8 10  2  0  0  0
  8 17  1  0  0  0
  9 15  1  0  0  0
  9 19  2  0  0  0
 10 26  1  0  0  0
 10 41  1  0  0  0
 11 12  1  0  0  0
 11 16  2  0  0  0
 12 27  1  0  0  0
 13 28  1  0  0  0
 14 16  1  0  0  0
 14 29  1  0  0  0
 15 21  2  0  0  0
 15 22  1  0  0  0
 16 30  1  0  0  0
 17 31  1  0  0  0
 17 32  1  0  0  0
 18 20  2  0  0  0
 18 33  1  0  0  0
 19 20  1  0  0  0
 19 34  1  0  0  0
 20 35  1  0  0  0
 21 24  1  0  0  0
 21 36  1  0  0  0
 22 23  2  0  0  0
 22 37  1  0  0  0
 23 25  1  0  0  0
 23 38  1  0  0  0
 24 25  2  0  0  0
 24 39  1  0  0  0
 25 40  1  0  0  0
M  CHG  1  10   1
M  END
> <chembl_id>
CHEMBL327715

> <chembl_pref_name>
None

> <s_m_source_file>
sdf/actives_sanitized.sdf

> <i_m_source_file_index>
10

> <i_lp_mmshare_version>
49012

> <i_m_ct_stereo_status>
1

> <i_f3d_flags>
0

> <s_epik_input>
W0hdXE49QyhbTkgyXSlcYyhbY0hdMSlbY0hdW2NIXWMoYzEyKVtuSF1jKG4yKS1jM2MoW09IXSljKFtjSF1bY0hdW2NIXTMpLWM0W2NIXVtjSF1bY0hdW2NIXVtjSF00

> <s_epik_cmdline>
J2VwaWtfcHl0aG9uJywgJy1waHQnLCAnMC41JywgJy1waCcsICc3LjUnLCAnLW50JywgJy1tYScsICcyMDAnLCAnLWltYWUnLCAnPGluZmlsZS5tYWU+JywgJy1vbWFlJywgJzxvdXRmaWxlLm1hZT4n

> <r_lp_tautomer_probability>
0.999999999997365

> <r_epik_Ionization_Penalty>
  0.0459

> <r_epik_Ionization_Penalty_Charging>
  0.0010

> <r_epik_Ionization_Penalty_Neutral>
  0.0449

> <r_epik_State_Penalty>
  0.3092

> <r_epik_Charging_Adjusted_Penalty>
0.310156181976053

> <i_epik_Tot_Q>
1

> <i_epik_Tot_abs_Q>
1

> <s_epik_Chemistry_Notes>
This compound has an imine and may undergo hydrolysis.

> <s_lp_Force_Field>
OPLS3e

> <r_lp_Energy>
37.369444

> <b_lp_Chiralities_Consistent>
1

> <s_lp_Variant>
sdf/actives_sanitized.sdf:10-1

$$$$
sdf/actives_sanitized.sdf:10
                    3D
 Schrodinger Suite 2020-1.
 42 45  0  0  1  0            999 V2000
   -0.0545    0.0016    0.0000 C   0  0  0  0  0  0
   -0.8694   -1.0309    0.0000 N   0  0  0  0  0  0
    1.4567   -0.0771    0.0000 C   0  0  0  0  0  0
   -0.7543    1.1927    0.0000 N   0  0  0  0  0  0
    2.1893   -1.2867    0.0000 C   0  0  0  0  0  0
   -2.1344   -0.5067   -0.0000 C   0  0  0  0  0  0
   -2.0979    0.9020   -0.0000 C   0  0  0  0  0  0
   -5.8750   -1.0934   -0.0000 C   0  0  0  0  0  0
    3.5967   -1.2761   -0.0000 C   0  0  0  0  0  0
   -6.9912   -0.3723    0.0000 N   0  3  0  0  0  0
   -4.5622   -0.4208   -0.0000 C   0  0  0  0  0  0
   -3.3692   -1.1696   -0.0000 C   0  0  0  0  0  0
    1.5485   -2.5029    0.0000 O   0  0  0  0  0  0
   -3.2563    1.6772   -0.0000 C   0  0  0  0  0  0
    4.3883   -2.5312   -0.0000 C   0  0  0  0  0  0
   -4.4692    0.9845   -0.0000 C   0  0  0  0  0  0
   -5.9387   -2.4205   -0.0000 N   0  0  0  0  0  0
    2.1751    1.1294    0.0000 C   0  0  0  0  0  0
    4.2714   -0.0540   -0.0000 C   0  0  0  0  0  0
    3.5661    1.1429   -0.0000 C   0  0  0  0  0  0
    4.7621   -3.1261    1.2088 C   0  0  0  0  0  0
    4.7621   -3.1261   -1.2088 C   0  0  0  0  0  0
    5.5018   -4.3058   -1.2099 C   0  0  0  0  0  0
    5.5018   -4.3058    1.2100 C   0  0  0  0  0  0
    5.8684   -4.8906   -0.0000 C   0  0  0  0  0  0
   -0.3053    2.0969    0.0000 H   0  0  0  0  0  0
   -7.8888   -0.8342    0.0000 H   0  0  0  0  0  0
   -3.3909   -2.2488   -0.0000 H   0  0  0  0  0  0
    2.1605   -3.2424    0.0001 H   0  0  0  0  0  0
   -3.2256    2.7570   -0.0000 H   0  0  0  0  0  0
   -5.3699    1.5796   -0.0000 H   0  0  0  0  0  0
   -6.8368   -2.8814   -0.0000 H   0  0  0  0  0  0
   -5.0880   -2.9638   -0.0000 H   0  0  0  0  0  0
    1.6641    2.0809    0.0000 H   0  0  0  0  0  0
    5.3519   -0.0310   -0.0000 H   0  0  0  0  0  0
    4.0985    2.0827    0.0000 H   0  0  0  0  0  0
    4.4776   -2.6749    2.1486 H   0  0  0  0  0  0
    4.4776   -2.6749   -2.1486 H   0  0  0  0  0  0
    5.7892   -4.7653   -2.1443 H   0  0  0  0  0  0
    5.7892   -4.7653    2.1442 H   0  0  0  0  0  0
    6.4412   -5.8063   -0.0000 H   0  0  0  0  0  0
   -6.9371    0.6357    0.0000 H   0  0  0  0  0  0
  1  2  2  0  0  0
  1  3  1  0  0  0
  1  4  1  0  0  0
  2  6  1  0  0  0
  3  5  2  0  0  0
  3 18  1  0  0  0
  4  7  1  0  0  0
  4 26  1  0  0  0
  5  9  1  0  0  0
  5 13  1  0  0  0
  6 12  2  0  0  0
  6  7  1  0  0  0
  7 14  2  0  0  0
  8 11  1  0  0  0
  8 10  2  0  0  0
  8 17  1  0  0  0
  9 15  1  0  0  0
  9 19  2  0  0  0
 10 27  1  0  0  0
 10 42  1  0  0  0
 11 12  1  0  0  0
 11 16  2  0  0  0
 12 28  1  0  0  0
 13 29  1  0  0  0
 14 16  1  0  0  0
 14 30  1  0  0  0
 15 21  2  0  0  0
 15 22  1  0  0  0
 16 31  1  0  0  0
 17 32  1  0  0  0
 17 33  1  0  0  0
 18 20  2  0  0  0
 18 34  1  0  0  0
 19 20  1  0  0  0
 19 35  1  0  0  0
 20 36  1  0  0  0
 21 24  1  0  0  0
 21 37  1  0  0  0
 22 23  2  0  0  0
 22 38  1  0  0  0
 23 25  1  0  0  0
 23 39  1  0  0  0
 24 25  2  0  0  0
 24 40  1  0  0  0
 25 41  1  0  0  0
M  CHG  1  10   1
M  END
> <chembl_id>
CHEMBL327715

> <chembl_pref_name>
None

> <s_m_source_file>
sdf/actives_sanitized.sdf

> <i_m_source_file_index>
10

> <i_lp_mmshare_version>
49012

> <i_m_ct_stereo_status>
1

> <i_f3d_flags>
0

> <s_epik_input>
W0hdXE49QyhbTkgyXSlcYyhbY0hdMSlbY0hdW2NIXWMoYzEyKVtuSF1jKG4yKS1jM2MoW09IXSljKFtjSF1bY0hdW2NIXTMpLWM0W2NIXVtjSF1bY0hdW2NIXVtjSF00

> <s_epik_cmdline>
J2VwaWtfcHl0aG9uJywgJy1waHQnLCAnMC41JywgJy1waCcsICc3LjUnLCAnLW50JywgJy1tYScsICcyMDAnLCAnLWltYWUnLCAnPGluZmlsZS5tYWU+JywgJy1vbWFlJywgJzxvdXRmaWxlLm1hZT4n

> <r_epik_Ionization_Penalty>
  0.0652

> <r_epik_Ionization_Penalty_Charging>
  0.0010

> <r_epik_Ionization_Penalty_Neutral>
  0.0642

> <r_epik_State_Penalty>
  0.5822

> <r_epik_Charging_Adjusted_Penalty>
0.58317507278885

> <i_epik_Tot_Q>
1

> <i_epik_Tot_abs_Q>
1

> <s_epik_Chemistry_Notes>
This compound has an imine and may undergo hydrolysis.

> <s_lp_Force_Field>
OPLS3e

> <r_lp_Energy>
39.167609

> <b_lp_Chiralities_Consistent>
1

> <s_lp_Variant>
sdf/actives_sanitized.sdf:10-2

$$$$
sdf/actives_sanitized.sdf:11
                    3D
 Schrodinger Suite 2020-1.
 54 58  0  0  1  0            999 V2000
    0.0592   -0.0558    0.0872 C   0  0  0  0  0  0
   -0.6259    1.1484    0.2356 N   0  0  0  0  0  0
   -1.9592    0.9370    0.2439 N   0  0  0  0  0  0
   -2.1535   -0.3612    0.2672 C   0  0  0  0  0  0
    7.3172   -3.1124    0.0570 N   0  0  0  0  0  0
   -0.9334   -1.0274    0.1570 C   0  0  0  0  0  0
    1.4629   -0.2503   -0.2023 C   0  0  0  0  0  0
    7.9491   -3.9444    0.9663 C   0  0  0  0  0  0
    8.2937   -2.8316   -0.8908 C   0  0  0  0  0  0
   -3.5578   -0.9319    0.3366 C   0  0  0  0  0  0
    9.2044   -4.2082    0.7061 N   0  0  0  0  0  0
    5.9608   -2.7056    0.0999 C   0  0  0  0  0  0
    1.9710   -1.3856    0.3222 N   0  0  0  0  0  0
   -0.1556    2.4878    0.1078 C   0  0  0  0  0  0
    5.2445   -2.4618   -1.0800 C   0  0  0  0  0  0
    2.8587    4.5423    1.1552 C   0  0  0  0  0  0
    3.3065   -1.7943    0.2116 C   0  0  0  0  0  0
    9.4508   -3.5248   -0.4503 C   0  0  0  0  0  0
    3.9208   -2.0237   -1.0300 C   0  0  0  0  0  0
    1.0673    2.8642    0.6815 C   0  0  0  0  0  0
    1.5700    4.1715    0.5632 C   0  0  0  0  0  0
    8.2264   -2.0667   -1.9897 N   0  0  0  0  0  0
    3.6103    5.4520    0.5468 N   0  3  0  0  0  0
    2.1052    0.5592   -0.8747 O   0  0  0  0  0  0
    5.3347   -2.4889    1.3348 C   0  0  0  0  0  0
    4.0126   -2.0484    1.3895 C   0  0  0  0  0  0
   -4.1884   -0.7905   -0.8290 F   0  0  0  0  0  0
   -3.5398   -2.2321    0.6305 F   0  0  0  0  0  0
   -4.2872   -0.3222    1.2719 F   0  0  0  0  0  0
    3.2427    3.9584    2.2842 N   0  0  0  0  0  0
    3.2450   -1.8382   -2.1887 F   0  0  0  0  0  0
   -0.9046    3.4553   -0.5781 C   0  0  0  0  0  0
    0.7976    5.1098   -0.1413 C   0  0  0  0  0  0
   -0.4278    4.7571   -0.7023 C   0  0  0  0  0  0
    9.3805   -1.9899   -2.7067 C   0  0  0  0  0  0
   10.6249   -3.4229   -1.2134 C   0  0  0  0  0  0
   10.5727   -2.6344   -2.3655 C   0  0  0  0  0  0
   -0.7978   -2.0973    0.0870 H   0  0  0  0  0  0
    7.3978   -4.3353    1.8089 H   0  0  0  0  0  0
    1.3727   -1.9535    0.9042 H   0  0  0  0  0  0
    5.6945   -2.6311   -2.0467 H   0  0  0  0  0  0
    1.6331    2.1255    1.2315 H   0  0  0  0  0  0
    4.5038    5.7109    0.9385 H   0  0  0  0  0  0
    5.8659   -2.6526    2.2612 H   0  0  0  0  0  0
    3.5463   -1.8940    2.3523 H   0  0  0  0  0  0
    4.1293    4.2019    2.7009 H   0  0  0  0  0  0
    2.6453    3.2721    2.7215 H   0  0  0  0  0  0
   -1.8528    3.2048   -1.0321 H   0  0  0  0  0  0
    1.1348    6.1306   -0.2558 H   0  0  0  0  0  0
   -1.0086    5.4941   -1.2376 H   0  0  0  0  0  0
    9.3368   -1.3783   -3.5958 H   0  0  0  0  0  0
   11.5333   -3.9308   -0.9234 H   0  0  0  0  0  0
   11.4486   -2.5223   -2.9876 H   0  0  0  0  0  0
    3.2912    5.8694   -0.3153 H   0  0  0  0  0  0
  1  2  1  0  0  0
  1  6  2  0  0  0
  1  7  1  0  0  0
  2  3  1  0  0  0
  2 14  1  0  0  0
  3  4  2  0  0  0
  4  6  1  0  0  0
  4 10  1  0  0  0
  5 12  1  0  0  0
  5  8  1  0  0  0
  5  9  1  0  0  0
  6 38  1  0  0  0
  7 13  1  0  0  0
  7 24  2  0  0  0
  8 11  2  0  0  0
  8 39  1  0  0  0
  9 18  2  0  0  0
  9 22  1  0  0  0
 10 27  1  0  0  0
 10 28  1  0  0  0
 10 29  1  0  0  0
 11 18  1  0  0  0
 12 25  2  0  0  0
 12 15  1  0  0  0
 13 17  1  0  0  0
 13 40  1  0  0  0
 14 20  2  0  0  0
 14 32  1  0  0  0
 15 19  2  0  0  0
 15 41  1  0  0  0
 16 21  1  0  0  0
 16 23  2  0  0  0
 16 30  1  0  0  0
 17 19  1  0  0  0
 17 26  2  0  0  0
 18 36  1  0  0  0
 19 31  1  0  0  0
 20 21  1  0  0  0
 20 42  1  0  0  0
 21 33  2  0  0  0
 22 35  2  0  0  0
 23 43  1  0  0  0
 23 54  1  0  0  0
 25 26  1  0  0  0
 25 44  1  0  0  0
 26 45  1  0  0  0
 30 46  1  0  0  0
 30 47  1  0  0  0
 32 34  2  0  0  0
 32 48  1  0  0  0
 33 34  1  0  0  0
 33 49  1  0  0  0
 34 50  1  0  0  0
 35 37  1  0  0  0
 35 51  1  0  0  0
 36 37  2  0  0  0
 36 52  1  0  0  0
 37 53  1  0  0  0
M  CHG  1  23   1
M  END
> <chembl_id>
CHEMBL183785

> <chembl_pref_name>
None

> <s_m_source_file>
sdf/actives_sanitized.sdf

> <i_m_source_file_index>
11

> <i_lp_mmshare_version>
49012

> <i_m_ct_stereo_status>
1

> <i_f3d_flags>
0

> <s_epik_input>
W2NIXTFbY0hdW2NIXWMoL0MoPU4vW0hdKVtOSDJdKVtjSF1jMS1uKG5jKFtjSF0yKUMoRikoRilGKWMyQyg9TylbTkhdYyhbY0hdW2NIXTMpYyhGKVtjSF1jMy1uNFtjSF1uYyhjNDUpW2NIXVtjSF1bY0hdbjU=

> <s_epik_cmdline>
J2VwaWtfcHl0aG9uJywgJy1waHQnLCAnMC41JywgJy1waCcsICc3LjUnLCAnLW50JywgJy1tYScsICcyMDAnLCAnLWltYWUnLCAnPGluZmlsZS5tYWU+JywgJy1vbWFlJywgJzxvdXRmaWxlLm1hZT4n

> <r_lp_tautomer_probability>
1

> <r_epik_Ionization_Penalty>
  0.0010

> <r_epik_Ionization_Penalty_Charging>
  0.0010

> <r_epik_Ionization_Penalty_Neutral>
  0.0000

> <r_epik_State_Penalty>
 -0.0000

> <r_epik_Charging_Adjusted_Penalty>
0.000998693062414705

> <i_epik_Tot_Q>
1

> <i_epik_Tot_abs_Q>
1

> <s_epik_Chemistry_Notes>
This compound has an imine and may undergo hydrolysis.

> <s_lp_Force_Field>
OPLS3e

> <r_lp_Energy>
49.89709

> <b_lp_Chiralities_Consistent>
1

> <s_lp_Variant>
sdf/actives_sanitized.sdf:11-1

$$$$
sdf/actives_sanitized.sdf:12
                    3D
 Schrodinger Suite 2020-1.
 57 61  0  0  1  0            999 V2000
    0.1715   -0.0043   -0.0970 C   0  0  0  0  0  0
   -0.5836    1.1530    0.0764 N   0  0  0  0  0  0
   -1.8946    0.8950   -0.1159 N   0  0  0  0  0  0
   -2.0271   -0.4047   -0.2550 C   0  0  0  0  0  0
   -0.7725   -1.0124   -0.2542 C   0  0  0  0  0  0
    7.5215   -2.7042    0.0860 N   0  0  0  0  0  0
    1.6070   -0.1192   -0.2158 C   0  0  0  0  0  0
   11.4582   -4.1946   -3.6590 N   0  3  0  0  0  0
    8.3761   -2.8295    1.1650 C   0  0  0  0  0  0
    9.5931   -3.1955    0.8643 N   0  0  0  0  0  0
   -3.3909   -1.0514   -0.4256 C   0  0  0  0  0  0
    8.2904   -3.0296   -1.0256 C   0  0  0  0  0  0
    9.5715   -3.3320   -0.4952 C   0  0  0  0  0  0
    6.1501   -2.3656    0.1524 C   0  0  0  0  0  0
    2.1007   -1.2631    0.3003 N   0  0  0  0  0  0
   -0.1653    2.5135    0.1492 C   0  0  0  0  0  0
   10.3733   -3.7867   -2.7308 C   0  0  0  0  0  0
   10.6147   -3.7128   -1.3502 C   0  0  0  0  0  0
    5.2251   -2.9473   -0.7252 C   0  0  0  0  0  0
    2.5824    4.5475    1.7973 C   0  0  0  0  0  0
    3.4497   -1.6234    0.2454 C   0  0  0  0  0  0
    3.8794   -2.5821   -0.6792 C   0  0  0  0  0  0
    0.9580    2.8668    0.9107 C   0  0  0  0  0  0
    1.4022    4.1974    1.0020 C   0  0  0  0  0  0
    8.0391   -3.0854   -2.4018 C   0  0  0  0  0  0
   11.2168   -4.2454   -4.8620 O   0  5  0  0  0  0
   12.5605   -4.4686   -3.1921 O   0  0  0  0  0  0
    3.3577    5.5476    1.3959 N   0  3  0  0  0  0
    2.2873    0.7575   -0.7533 O   0  0  0  0  0  0
    9.0985   -3.4702   -3.2253 C   0  0  0  0  0  0
    5.7129   -1.3992    1.0687 C   0  0  0  0  0  0
    4.3677   -1.0346    1.1210 C   0  0  0  0  0  0
   -3.4557   -1.7198   -1.5767 F   0  0  0  0  0  0
   -3.6271   -1.9191    0.5578 F   0  0  0  0  0  0
   -4.3844   -0.1600   -0.4228 F   0  0  0  0  0  0
    2.8462    3.8562    2.8999 N   0  0  0  0  0  0
    3.0020   -3.1654   -1.5302 F   0  0  0  0  0  0
   -0.8714    3.5242   -0.5197 C   0  0  0  0  0  0
    0.6766    5.1804    0.3087 C   0  0  0  0  0  0
   -0.4498    4.8484   -0.4410 C   0  0  0  0  0  0
   -0.5777   -2.0647   -0.4054 H   0  0  0  0  0  0
    8.0111   -2.6442    2.1650 H   0  0  0  0  0  0
    1.4653   -1.9255    0.7209 H   0  0  0  0  0  0
   11.5885   -3.9455   -0.9435 H   0  0  0  0  0  0
    5.5337   -3.7013   -1.4341 H   0  0  0  0  0  0
    1.4886    2.0924    1.4464 H   0  0  0  0  0  0
    7.0779   -2.8386   -2.8268 H   0  0  0  0  0  0
    4.1742    5.7994    1.9334 H   0  0  0  0  0  0
    8.9101   -3.5191   -4.2882 H   0  0  0  0  0  0
    6.4098   -0.9207    1.7413 H   0  0  0  0  0  0
    4.0446   -0.2909    1.8352 H   0  0  0  0  0  0
    3.6547    4.0879    3.4581 H   0  0  0  0  0  0
    2.2305    3.1067    3.1798 H   0  0  0  0  0  0
   -1.7435    3.2926   -1.1145 H   0  0  0  0  0  0
    0.9716    6.2196    0.3511 H   0  0  0  0  0  0
   -0.9975    5.6192   -0.9632 H   0  0  0  0  0  0
    3.1307    6.0483    0.5490 H   0  0  0  0  0  0
  1  2  1  0  0  0
  1  5  2  0  0  0
  1  7  1  0  0  0
  2  3  1  0  0  0
  2 16  1  0  0  0
  3  4  2  0  0  0
  4  5  1  0  0  0
  4 11  1  0  0  0
  5 41  1  0  0  0
  6 14  1  0  0  0
  6  9  1  0  0  0
  6 12  1  0  0  0
  7 15  1  0  0  0
  7 29  2  0  0  0
  8 17  1  0  0  0
  8 26  1  0  0  0
  8 27  2  0  0  0
  9 10  2  0  0  0
  9 42  1  0  0  0
 10 13  1  0  0  0
 11 33  1  0  0  0
 11 34  1  0  0  0
 11 35  1  0  0  0
 12 13  2  0  0  0
 12 25  1  0  0  0
 13 18  1  0  0  0
 14 31  2  0  0  0
 14 19  1  0  0  0
 15 21  1  0  0  0
 15 43  1  0  0  0
 16 23  2  0  0  0
 16 38  1  0  0  0
 17 30  1  0  0  0
 17 18  2  0  0  0
 18 44  1  0  0  0
 19 22  2  0  0  0
 19 45  1  0  0  0
 20 24  1  0  0  0
 20 28  2  0  0  0
 20 36  1  0  0  0
 21 22  1  0  0  0
 21 32  2  0  0  0
 22 37  1  0  0  0
 23 24  1  0  0  0
 23 46  1  0  0  0
 24 39  2  0  0  0
 25 30  2  0  0  0
 25 47  1  0  0  0
 28 48  1  0  0  0
 28 57  1  0  0  0
 30 49  1  0  0  0
 31 32  1  0  0  0
 31 50  1  0  0  0
 32 51  1  0  0  0
 36 52  1  0  0  0
 36 53  1  0  0  0
 38 40  2  0  0  0
 38 54  1  0  0  0
 39 40  1  0  0  0
 39 55  1  0  0  0
 40 56  1  0  0  0
M  CHG  3   8   1  26  -1  28   1
M  END
> <chembl_id>
CHEMBL434521

> <chembl_pref_name>
None

> <s_m_source_file>
sdf/actives_sanitized.sdf

> <i_m_source_file_index>
12

> <i_lp_mmshare_version>
49012

> <i_m_ct_stereo_status>
1

> <i_f3d_flags>
0

> <s_epik_input>
W2NIXTFbY0hdW2NIXWMoL0MoPU4vW0hdKVtOSDJdKVtjSF1jMS1uKG5jKFtjSF0yKUMoRikoRilGKWMyQyg9TylbTkhdYyhbY0hdW2NIXTMpYyhGKVtjSF1jMy1uNFtjSF1uYyhjNDUpW2NIXWMoW04rXShbTy1dKT1PKVtjSF1bY0hdNQ==

> <s_epik_cmdline>
J2VwaWtfcHl0aG9uJywgJy1waHQnLCAnMC41JywgJy1waCcsICc3LjUnLCAnLW50JywgJy1tYScsICcyMDAnLCAnLWltYWUnLCAnPGluZmlsZS5tYWU+JywgJy1vbWFlJywgJzxvdXRmaWxlLm1hZT4n

> <r_lp_tautomer_probability>
1

> <r_epik_Ionization_Penalty>
  0.0012

> <r_epik_Ionization_Penalty_Charging>
  0.0010

> <r_epik_Ionization_Penalty_Neutral>
  0.0002

> <r_epik_State_Penalty>
 -0.0000

> <r_epik_Charging_Adjusted_Penalty>
0.000984797499885888

> <i_epik_Tot_Q>
1

> <i_epik_Tot_abs_Q>
3

> <s_epik_Chemistry_Notes>
This compound has an imine and may undergo hydrolysis.

> <s_lp_Force_Field>
OPLS3e

> <r_lp_Energy>
55.960291

> <b_lp_Chiralities_Consistent>
1

> <s_lp_Variant>
sdf/actives_sanitized.sdf:12-1

$$$$
sdf/actives_sanitized.sdf:13
                    3D
 Schrodinger Suite 2020-1.
 65 70  0  0  1  0            999 V2000
    3.9585   -1.2416   -7.4742 N   0  0  0  0  0  0
    0.0354   -0.0787   -0.0693 C   0  0  0  0  0  0
    5.2786   -1.3275   -7.8751 C   0  0  0  0  0  0
   -0.8254    1.0767   -0.0977 C   0  0  0  0  0  0
    2.2572   -0.7257   -1.1121 C   0  0  0  0  0  0
    5.4554   -1.5853   -9.1430 N   0  0  0  0  0  0
    1.5527   -0.0782    0.1016 C   0  0  2  0  0  0
   -0.8107   -1.1685   -0.1994 C   0  0  0  0  0  0
    3.5109   -0.9364   -6.1683 C   0  0  0  0  0  0
   -2.1109   -0.7537   -0.3162 N   0  0  0  0  0  0
    3.2135   -1.4689   -8.6255 C   0  0  0  0  0  0
    2.0864   -0.0802   -2.2878 N   0  0  0  0  0  0
   -0.5988    2.4590   -0.0012 C   0  0  0  0  0  0
    2.3692   -0.1529   -5.9644 C   0  0  0  0  0  0
   -1.4330    4.8063    0.0293 C   0  0  0  0  0  0
   -1.6700    3.3628   -0.0663 C   0  0  0  0  0  0
    2.5947   -0.4035   -3.5608 C   0  0  0  0  0  0
   -2.1664    0.6203   -0.2567 C   0  0  0  0  0  0
    1.9178    0.1175   -4.6720 C   0  0  0  0  0  0
    4.1867   -1.6783   -9.6415 C   0  0  0  0  0  0
   -2.3763    5.5893    0.5400 N   0  3  0  0  0  0
    1.9705   -0.6882    1.4683 C   0  0  0  0  0  0
    2.8928   -1.7727   -0.9765 O   0  0  0  0  0  0
    4.1853   -1.4622   -5.0601 C   0  0  0  0  0  0
    3.7372   -1.1941   -3.7675 C   0  0  0  0  0  0
   -2.9685    2.8596   -0.2258 C   0  0  0  0  0  0
   -3.2499    1.4979   -0.3241 C   0  0  0  0  0  0
   -0.2783    5.3046   -0.3980 N   0  0  0  0  0  0
    0.8168    0.8907   -4.5099 F   0  0  0  0  0  0
    1.4269    0.0848    2.6655 C   0  0  0  0  0  0
    1.8398   -1.5314   -8.9029 C   0  0  0  0  0  0
    3.7829   -1.9419  -10.9583 C   0  0  0  0  0  0
    2.0795    1.2417    3.1002 C   0  0  0  0  0  0
    0.2698   -0.3531    3.3160 C   0  0  0  0  0  0
    1.4715   -1.7948  -10.2243 C   0  0  0  0  0  0
    2.4165   -1.9941  -11.2298 C   0  0  0  0  0  0
   -0.2349    0.3662    4.3962 C   0  0  0  0  0  0
    1.5754    1.9598    4.1814 C   0  0  0  0  0  0
    0.4204    1.5190    4.8240 C   0  0  0  0  0  0
    6.0696   -1.1690   -7.1565 H   0  0  0  0  0  0
    1.9120    0.9525    0.1086 H   0  0  0  0  0  0
   -0.5863   -2.2254   -0.2201 H   0  0  0  0  0  0
   -2.8802   -1.3995   -0.4228 H   0  0  0  0  0  0
    1.4449    0.6993   -2.2801 H   0  0  0  0  0  0
    0.4077    2.8261    0.1325 H   0  0  0  0  0  0
    1.8357    0.2723   -6.8015 H   0  0  0  0  0  0
   -2.2220    6.5847    0.6083 H   0  0  0  0  0  0
    1.6618   -1.7336    1.5366 H   0  0  0  0  0  0
    3.0587   -0.7131    1.5551 H   0  0  0  0  0  0
    5.0608   -2.0821   -5.1900 H   0  0  0  0  0  0
    4.3031   -1.5992   -2.9431 H   0  0  0  0  0  0
   -3.7981    3.5486   -0.2849 H   0  0  0  0  0  0
   -4.2641    1.1467   -0.4481 H   0  0  0  0  0  0
   -0.1050    6.2973   -0.3391 H   0  0  0  0  0  0
    0.4196    4.6872   -0.7863 H   0  0  0  0  0  0
    1.0875   -1.3938   -8.1411 H   0  0  0  0  0  0
    4.5069   -2.1017  -11.7438 H   0  0  0  0  0  0
    2.9730    1.5859    2.5998 H   0  0  0  0  0  0
   -0.2417   -1.2443    2.9821 H   0  0  0  0  0  0
    0.4223   -1.8491  -10.4754 H   0  0  0  0  0  0
    2.0833   -2.1964  -12.2373 H   0  0  0  0  0  0
   -1.1301    0.0318    4.9000 H   0  0  0  0  0  0
    2.0773    2.8540    4.5203 H   0  0  0  0  0  0
    0.0298    2.0762    5.6629 H   0  0  0  0  0  0
   -3.2434    5.1846    0.8620 H   0  0  0  0  0  0
  1  3  1  0  0  0
  1  9  1  0  0  0
  1 11  1  0  0  0
  2  7  1  0  0  0
  2  4  1  0  0  0
  2  8  2  0  0  0
  3  6  2  0  0  0
  3 40  1  0  0  0
  4 13  2  0  0  0
  4 18  1  0  0  0
  5 12  1  0  0  0
  5  7  1  0  0  0
  5 23  2  0  0  0
  6 20  1  0  0  0
  7 22  1  0  0  0
  7 41  1  0  0  0
  8 10  1  0  0  0
  8 42  1  0  0  0
  9 14  2  0  0  0
  9 24  1  0  0  0
 10 18  1  0  0  0
 10 43  1  0  0  0
 11 20  2  0  0  0
 11 31  1  0  0  0
 12 17  1  0  0  0
 12 44  1  0  0  0
 13 16  1  0  0  0
 13 45  1  0  0  0
 14 19  1  0  0  0
 14 46  1  0  0  0
 15 16  1  0  0  0
 15 21  2  0  0  0
 15 28  1  0  0  0
 16 26  2  0  0  0
 17 25  1  0  0  0
 17 19  2  0  0  0
 18 27  2  0  0  0
 19 29  1  0  0  0
 20 32  1  0  0  0
 21 47  1  0  0  0
 21 65  1  0  0  0
 22 30  1  0  0  0
 22 48  1  0  0  0
 22 49  1  0  0  0
 24 25  2  0  0  0
 24 50  1  0  0  0
 25 51  1  0  0  0
 26 27  1  0  0  0
 26 52  1  0  0  0
 27 53  1  0  0  0
 28 54  1  0  0  0
 28 55  1  0  0  0
 30 33  2  0  0  0
 30 34  1  0  0  0
 31 35  2  0  0  0
 31 56  1  0  0  0
 32 36  2  0  0  0
 32 57  1  0  0  0
 33 38  1  0  0  0
 33 58  1  0  0  0
 34 37  2  0  0  0
 34 59  1  0  0  0
 35 36  1  0  0  0
 35 60  1  0  0  0
 36 61  1  0  0  0
 37 39  1  0  0  0
 37 62  1  0  0  0
 38 39  2  0  0  0
 38 63  1  0  0  0
 39 64  1  0  0  0
M  CHG  1  21   1
M  END
> <chembl_id>
CHEMBL263495

> <chembl_pref_name>
None

> <s_m_source_file>
sdf/actives_sanitized.sdf

> <i_m_source_file_index>
13

> <i_lp_mmshare_version>
49012

> <i_m_ct_stereo_status>
1

> <i_f3d_flags>
0

> <s_epik_input>
W2NIXTFbY0hdW2NIXVtjSF1jKGMxMiluW2NIXW4yLWMzW2NIXWMoRiljKFtjSF1bY0hdMylbTkhdQyg9TylbQ0BIXShbQ0gyXWM0W2NIXVtjSF1bY0hdW2NIXVtjSF00KWM1W2NIXVtuSF1jKGM1NilbY0hdW2NIXWMoW2NIXTYpL0MoPU4vW0hdKVtOSDJd

> <s_epik_cmdline>
J2VwaWtfcHl0aG9uJywgJy1waHQnLCAnMC41JywgJy1waCcsICc3LjUnLCAnLW50JywgJy1tYScsICcyMDAnLCAnLWltYWUnLCAnPGluZmlsZS5tYWU+JywgJy1vbWFlJywgJzxvdXRmaWxlLm1hZT4n

> <r_epik_Ionization_Penalty>
  0.0112

> <r_epik_Ionization_Penalty_Charging>
  0.0010

> <r_epik_Ionization_Penalty_Neutral>
  0.0102

> <r_epik_State_Penalty>
  0.0078

> <r_epik_Charging_Adjusted_Penalty>
0.00877873498810205

> <i_epik_Tot_Q>
1

> <i_epik_Tot_abs_Q>
1

> <s_epik_Chemistry_Notes>
This compound has an imine and may undergo hydrolysis.

> <s_lp_Force_Field>
OPLS3e

> <r_lp_Energy>
49.226379

> <b_lp_Chiralities_Consistent>
1

> <s_lp_Variant>
sdf/actives_sanitized.sdf:13-1

$$$$
sdf/actives_sanitized.sdf:14
                    3D
 Schrodinger Suite 2020-1.
 55 59  0  0  1  0            999 V2000
    0.1704   -0.0036   -0.0957 C   0  0  0  0  0  0
   -0.5852    1.1529    0.0799 N   0  0  0  0  0  0
   -1.8965    0.8946   -0.1096 N   0  0  0  0  0  0
   -2.0289   -0.4049   -0.2497 C   0  0  0  0  0  0
   -0.7738   -1.0118   -0.2536 C   0  0  0  0  0  0
    7.5204   -2.7075    0.0707 N   0  0  0  0  0  0
    1.6061   -0.1172   -0.2157 C   0  0  0  0  0  0
    8.3776   -2.8392    1.1472 C   0  0  0  0  0  0
    9.5941   -3.2042    0.8430 N   0  0  0  0  0  0
   -3.3935   -1.0516   -0.4156 C   0  0  0  0  0  0
    8.2863   -3.0271   -1.0448 C   0  0  0  0  0  0
    9.5710   -3.3326   -0.5170 C   0  0  0  0  0  0
    6.1495   -2.3679    0.1425 C   0  0  0  0  0  0
    2.1017   -1.2585    0.3042 N   0  0  0  0  0  0
   -0.1675    2.5136    0.1530 C   0  0  0  0  0  0
    5.2223   -2.9410   -0.7381 C   0  0  0  0  0  0
    2.5851    4.5453    1.7954 C   0  0  0  0  0  0
    3.4503   -1.6209    0.2445 C   0  0  0  0  0  0
    3.8774   -2.5733   -0.6879 C   0  0  0  0  0  0
    0.9570    2.8662    0.9129 C   0  0  0  0  0  0
    1.4020    4.1966    1.0036 C   0  0  0  0  0  0
   10.6135   -3.7069   -1.3768 C   0  0  0  0  0  0
    8.0310   -3.0753   -2.4231 C   0  0  0  0  0  0
    3.3606    5.5437    1.3902 N   0  3  0  0  0  0
    2.2846    0.7586   -0.7570 O   0  0  0  0  0  0
    5.7150   -1.4082    1.0672 C   0  0  0  0  0  0
    4.3703   -1.0416    1.1242 C   0  0  0  0  0  0
   -3.4631   -1.7200   -1.5661 F   0  0  0  0  0  0
   -3.6272   -1.9188    0.5688 F   0  0  0  0  0  0
   -4.3866   -0.1596   -0.4093 F   0  0  0  0  0  0
   10.3524   -3.7651   -2.7455 C   0  0  0  0  0  0
    2.8511    3.8546    2.8977 N   0  0  0  0  0  0
    2.9981   -3.1478   -1.5426 F   0  0  0  0  0  0
    9.0900   -3.4539   -3.2513 C   0  0  0  0  0  0
   11.6135   -4.2248   -3.8305 Cl  0  0  0  0  0  0
   -0.8748    3.5247   -0.5140 C   0  0  0  0  0  0
    0.6753    5.1801    0.3123 C   0  0  0  0  0  0
   -0.4527    4.8487   -0.4353 C   0  0  0  0  0  0
   -0.5787   -2.0636   -0.4079 H   0  0  0  0  0  0
    8.0146   -2.6591    2.1489 H   0  0  0  0  0  0
    1.4675   -1.9187    0.7297 H   0  0  0  0  0  0
    5.5286   -3.6902   -1.4528 H   0  0  0  0  0  0
    1.4883    2.0916    1.4475 H   0  0  0  0  0  0
   11.5948   -3.9438   -0.9919 H   0  0  0  0  0  0
    7.0690   -2.8267   -2.8447 H   0  0  0  0  0  0
    4.1820    5.7921    1.9217 H   0  0  0  0  0  0
    6.4140   -0.9364    1.7427 H   0  0  0  0  0  0
    4.0492   -0.3031    1.8449 H   0  0  0  0  0  0
    3.6624    4.0840    3.4528 H   0  0  0  0  0  0
    2.2352    3.1061    3.1800 H   0  0  0  0  0  0
    8.9235   -3.5032   -4.3178 H   0  0  0  0  0  0
   -1.7480    3.2934   -1.1071 H   0  0  0  0  0  0
    0.9713    6.2192    0.3544 H   0  0  0  0  0  0
   -1.0008    5.6202   -0.9561 H   0  0  0  0  0  0
    3.1303    6.0437    0.5438 H   0  0  0  0  0  0
  1  2  1  0  0  0
  1  5  2  0  0  0
  1  7  1  0  0  0
  2  3  1  0  0  0
  2 15  1  0  0  0
  3  4  2  0  0  0
  4  5  1  0  0  0
  4 10  1  0  0  0
  5 39  1  0  0  0
  6 13  1  0  0  0
  6  8  1  0  0  0
  6 11  1  0  0  0
  7 14  1  0  0  0
  7 25  2  0  0  0
  8  9  2  0  0  0
  8 40  1  0  0  0
  9 12  1  0  0  0
 10 28  1  0  0  0
 10 29  1  0  0  0
 10 30  1  0  0  0
 11 12  2  0  0  0
 11 23  1  0  0  0
 12 22  1  0  0  0
 13 26  2  0  0  0
 13 16  1  0  0  0
 14 18  1  0  0  0
 14 41  1  0  0  0
 15 20  2  0  0  0
 15 36  1  0  0  0
 16 19  2  0  0  0
 16 42  1  0  0  0
 17 21  1  0  0  0
 17 24  2  0  0  0
 17 32  1  0  0  0
 18 19  1  0  0  0
 18 27  2  0  0  0
 19 33  1  0  0  0
 20 21  1  0  0  0
 20 43  1  0  0  0
 21 37  2  0  0  0
 22 31  2  0  0  0
 22 44  1  0  0  0
 23 34  2  0  0  0
 23 45  1  0  0  0
 24 46  1  0  0  0
 24 55  1  0  0  0
 26 27  1  0  0  0
 26 47  1  0  0  0
 27 48  1  0  0  0
 31 34  1  0  0  0
 31 35  1  0  0  0
 32 49  1  0  0  0
 32 50  1  0  0  0
 34 51  1  0  0  0
 36 38  2  0  0  0
 36 52  1  0  0  0
 37 38  1  0  0  0
 37 53  1  0  0  0
 38 54  1  0  0  0
M  CHG  1  24   1
M  END
> <chembl_id>
CHEMBL186761

> <chembl_pref_name>
None

> <s_m_source_file>
sdf/actives_sanitized.sdf

> <i_m_source_file_index>
14

> <i_lp_mmshare_version>
49012

> <i_m_ct_stereo_status>
1

> <i_f3d_flags>
0

> <s_epik_input>
W2NIXTFbY0hdW2NIXWMoL0MoPU4vW0hdKVtOSDJdKVtjSF1jMS1uKG5jKFtjSF0yKUMoRikoRilGKWMyQyg9TylbTkhdYyhbY0hdW2NIXTMpYyhGKVtjSF1jMy1uNFtjSF1uYyhjNDUpW2NIXWMoQ2wpW2NIXVtjSF01

> <s_epik_cmdline>
J2VwaWtfcHl0aG9uJywgJy1waHQnLCAnMC41JywgJy1waCcsICc3LjUnLCAnLW50JywgJy1tYScsICcyMDAnLCAnLWltYWUnLCAnPGluZmlsZS5tYWU+JywgJy1vbWFlJywgJzxvdXRmaWxlLm1hZT4n

> <r_lp_tautomer_probability>
1

> <r_epik_Ionization_Penalty>
  0.0040

> <r_epik_Ionization_Penalty_Charging>
  0.0010

> <r_epik_Ionization_Penalty_Neutral>
  0.0030

> <r_epik_State_Penalty>
 -0.0000

> <r_epik_Charging_Adjusted_Penalty>
0.000984797499885888

> <i_epik_Tot_Q>
1

> <i_epik_Tot_abs_Q>
1

> <s_epik_Chemistry_Notes>
This compound has an imine and may undergo hydrolysis.

> <s_lp_Force_Field>
OPLS3e

> <r_lp_Energy>
50.400541

> <b_lp_Chiralities_Consistent>
1

> <s_lp_Variant>
sdf/actives_sanitized.sdf:14-1

$$$$
sdf/actives_sanitized.sdf:15
                    3D
 Schrodinger Suite 2020-1.
 77 83  0  0  1  0            999 V2000
   -3.2848    3.6547   -3.2071 C   0  0  0  0  0  0
   -3.9348    2.7688   -2.1247 C   0  0  2  0  0  0
   -5.4875    2.7517   -2.2442 C   0  0  0  0  0  0
   -6.0472    1.9207   -3.4297 C   0  0  0  0  0  0
   -7.4012    1.2149   -3.1442 C   0  0  0  0  0  0
   -7.3087   -0.1969   -2.4779 C   0  0  2  0  0  0
   -8.6254   -0.8621   -2.3084 N   0  0  0  0  0  0
   -9.8104   -0.0541   -1.8904 C   0  0  0  0  0  0
  -10.8934   -0.8826   -1.1479 C   0  0  0  0  0  0
  -11.1091   -2.1929   -1.8799 C   0  0  0  0  0  0
  -10.0416   -2.7828   -2.4514 C   0  0  0  0  0  0
   -8.7100   -2.2197   -2.4997 C   0  0  0  0  0  0
   -7.7384   -2.9521   -2.6958 O   0  0  0  0  0  0
  -12.3773   -2.9337   -1.7010 C   0  0  0  0  0  0
  -12.4126   -4.1687   -1.0318 C   0  0  0  0  0  0
  -11.2814   -4.7129   -0.5238 F   0  0  0  0  0  0
  -13.6184   -4.8498   -0.8683 C   0  0  0  0  0  0
  -14.8014   -4.3092   -1.3661 C   0  0  0  0  0  0
  -14.7828   -3.0832   -2.0292 C   0  0  0  0  0  0
  -16.2591   -2.4257   -2.6412 Cl  0  0  0  0  0  0
  -13.5761   -2.3963   -2.1959 C   0  0  0  0  0  0
  -13.5708   -1.2091   -2.8496 F   0  0  0  0  0  0
   -6.4673   -0.1800   -1.1982 C   0  0  0  0  0  0
   -5.0831   -0.3370   -1.2890 C   0  0  0  0  0  0
   -4.2904   -0.0539   -0.1740 C   0  0  0  0  0  0
   -4.9232    0.2447    1.0388 C   0  0  0  0  0  0
   -6.3187    0.2870    1.0776 C   0  0  0  0  0  0
   -7.0931    0.0994   -0.0215 N   0  0  0  0  0  0
   -2.8164    0.0142   -0.3295 C   0  0  0  0  0  0
   -2.1123   -1.1561   -0.6316 C   0  0  0  0  0  0
   -0.7309   -1.1378   -0.8126 C   0  0  0  0  0  0
   -0.0169    0.0620   -0.7060 C   0  0  0  0  0  0
    1.3775    0.1474   -0.8627 N   0  0  0  0  0  0
    2.2272   -0.7681   -1.4359 C   0  0  0  0  0  0
    1.7443   -1.6673   -2.3313 O   0  0  0  0  0  0
    2.8626   -2.3348   -2.7093 C   0  0  0  0  0  0
    3.9451   -1.8815   -2.1234 N   0  0  0  0  0  0
    3.5273   -0.8386   -1.3009 N   0  0  0  0  0  0
    2.7226   -3.4635   -3.7107 C   0  0  0  0  0  0
    3.5869   -4.6967   -3.5980 C   0  0  0  0  0  0
    3.8033   -3.7181   -4.7343 C   0  0  0  0  0  0
   -0.7108    1.2340   -0.3994 C   0  0  0  0  0  0
   -2.0988    1.2264   -0.2320 C   0  0  0  0  0  0
   -2.7024    2.4544    0.0819 N   0  0  0  0  0  0
   -3.4959    3.2171   -0.7047 C   0  0  0  0  0  0
   -3.8864    4.3058   -0.2850 O   0  0  0  0  0  0
   -2.1962    3.6387   -3.1347 H   0  0  0  0  0  0
   -3.6039    4.6948   -3.1246 H   0  0  0  0  0  0
   -3.5454    3.3088   -4.2079 H   0  0  0  0  0  0
   -3.5740    1.7579   -2.3005 H   0  0  0  0  0  0
   -5.9120    2.3752   -1.3144 H   0  0  0  0  0  0
   -5.8700    3.7720   -2.3081 H   0  0  0  0  0  0
   -6.1673    2.5899   -4.2828 H   0  0  0  0  0  0
   -5.3230    1.1759   -3.7615 H   0  0  0  0  0  0
   -8.0300    1.8878   -2.5610 H   0  0  0  0  0  0
   -7.9165    1.0922   -4.0981 H   0  0  0  0  0  0
   -6.7423   -0.7957   -3.1945 H   0  0  0  0  0  0
   -9.5243    0.8563   -1.3645 H   0  0  0  0  0  0
  -10.2663    0.2895   -2.8200 H   0  0  0  0  0  0
  -10.5265   -1.0990   -0.1435 H   0  0  0  0  0  0
  -11.8162   -0.3124   -1.0401 H   0  0  0  0  0  0
  -10.1619   -3.7665   -2.8836 H   0  0  0  0  0  0
  -13.6370   -5.7980   -0.3514 H   0  0  0  0  0  0
  -15.7315   -4.8428   -1.2350 H   0  0  0  0  0  0
   -4.6213   -0.5461   -2.2435 H   0  0  0  0  0  0
   -4.3457    0.4600    1.9259 H   0  0  0  0  0  0
   -6.8371    0.5170    1.9966 H   0  0  0  0  0  0
   -2.6395   -2.0952   -0.7208 H   0  0  0  0  0  0
   -0.2316   -2.0716   -1.0197 H   0  0  0  0  0  0
    1.7414    1.0577   -0.6215 H   0  0  0  0  0  0
    1.6976   -3.6259   -4.0460 H   0  0  0  0  0  0
    4.3247   -4.7510   -2.7966 H   0  0  0  0  0  0
    3.1344   -5.6657   -3.8100 H   0  0  0  0  0  0
    4.6925   -3.0867   -4.7295 H   0  0  0  0  0  0
    3.5006   -3.9993   -5.7432 H   0  0  0  0  0  0
   -0.1681    2.1649   -0.3038 H   0  0  0  0  0  0
   -2.4156    2.8613    0.9603 H   0  0  0  0  0  0
  1  2  1  0  0  0
  1 47  1  0  0  0
  1 48  1  0  0  0
  1 49  1  0  0  0
  2  3  1  0  0  0
  2 45  1  0  0  0
  2 50  1  0  0  0
  3  4  1  0  0  0
  3 51  1  0  0  0
  3 52  1  0  0  0
  4  5  1  0  0  0
  4 53  1  0  0  0
  4 54  1  0  0  0
  5  6  1  0  0  0
  5 55  1  0  0  0
  5 56  1  0  0  0
  6  7  1  0  0  0
  6 23  1  0  0  0
  6 57  1  0  0  0
  7  8  1  0  0  0
  7 12  1  0  0  0
  8  9  1  0  0  0
  8 58  1  0  0  0
  8 59  1  0  0  0
  9 10  1  0  0  0
  9 60  1  0  0  0
  9 61  1  0  0  0
 10 11  2  0  0  0
 10 14  1  0  0  0
 11 12  1  0  0  0
 11 62  1  0  0  0
 12 13  2  0  0  0
 14 15  2  0  0  0
 14 21  1  0  0  0
 15 16  1  0  0  0
 15 17  1  0  0  0
 17 18  2  0  0  0
 17 63  1  0  0  0
 18 19  1  0  0  0
 18 64  1  0  0  0
 19 20  1  0  0  0
 19 21  2  0  0  0
 21 22  1  0  0  0
 23 24  1  0  0  0
 23 28  2  0  0  0
 24 25  2  0  0  0
 24 65  1  0  0  0
 25 26  1  0  0  0
 25 29  1  0  0  0
 26 27  2  0  0  0
 26 66  1  0  0  0
 27 28  1  0  0  0
 27 67  1  0  0  0
 29 30  2  0  0  0
 29 43  1  0  0  0
 30 31  1  0  0  0
 30 68  1  0  0  0
 31 32  2  0  0  0
 31 69  1  0  0  0
 32 33  1  0  0  0
 32 42  1  0  0  0
 33 34  1  0  0  0
 33 70  1  0  0  0
 34 35  1  0  0  0
 34 38  2  0  0  0
 35 36  1  0  0  0
 36 37  2  0  0  0
 36 39  1  0  0  0
 37 38  1  0  0  0
 39 40  1  0  0  0
 39 41  1  0  0  0
 39 71  1  0  0  0
 40 41  1  0  0  0
 40 72  1  0  0  0
 40 73  1  0  0  0
 41 74  1  0  0  0
 41 75  1  0  0  0
 42 43  2  0  0  0
 42 76  1  0  0  0
 43 44  1  0  0  0
 44 45  1  0  0  0
 44 77  1  0  0  0
 45 46  2  0  0  0
M  END
> <chembl_id>
CHEMBL4114332

> <chembl_pref_name>
None

> <i_m_ct_stereo_status>
1

> <s_m_source_file>
sdf/actives_sanitized.sdf

> <i_m_source_file_index>
15

> <i_lp_mmshare_version>
49012

> <i_f3d_flags>
0

> <s_epik_input>
W0NIMl0xW0NIMl1bQ0hdMWMobm4yKW9jMltOSF1jKFtjSF1bY0hdMylbY0hdYyhjM2MoW2NIXWM0NSlbY0hdW2NIXW41KVtOSF1DKD1PKVtDQEhdKFtDSDNdKVtDSDJdW0NIMl1bQ0gyXVtDQEBIXTRONltDSDJdW0NIMl1DKD1bQ0hdQzY9TyljN2MoRilbY0hdW2NIXWMoQ2wpYzdG

> <s_epik_cmdline>
J2VwaWtfcHl0aG9uJywgJy1waHQnLCAnMC41JywgJy1waCcsICc3LjUnLCAnLW50JywgJy1tYScsICcyMDAnLCAnLWltYWUnLCAnPGluZmlsZS5tYWU+JywgJy1vbWFlJywgJzxvdXRmaWxlLm1hZT4n

> <r_lp_tautomer_probability>
1

> <r_epik_Ionization_Penalty>
  0.0001

> <r_epik_Ionization_Penalty_Charging>
  0.0000

> <r_epik_Ionization_Penalty_Neutral>
  0.0001

> <r_epik_State_Penalty>
 -0.0000

> <r_epik_Charging_Adjusted_Penalty>
0

> <i_epik_Tot_Q>
0

> <i_epik_Tot_abs_Q>
0

> <s_lp_Force_Field>
OPLS3e

> <r_lp_Energy>
105.221581

> <b_lp_Chiralities_Consistent>
1

> <s_lp_Variant>
sdf/actives_sanitized.sdf:15-1

$$$$
sdf/actives_sanitized.sdf:16
                    3D
 Schrodinger Suite 2020-1.
 74 79  0  0  1  0            999 V2000
   -1.1990    3.6998   -2.1425 C   0  0  0  0  0  0
   -2.5679    3.0077   -1.9583 C   0  0  2  0  0  0
   -3.5489    3.4409   -3.1051 C   0  0  0  0  0  0
   -4.7922    2.5534   -3.3993 C   0  0  0  0  0  0
   -6.0048    2.7229   -2.4426 C   0  0  0  0  0  0
   -6.8673    1.4344   -2.1901 C   0  0  2  0  0  0
   -8.3214    1.7278   -2.1014 N   0  0  0  0  0  0
   -9.2274    0.8930   -2.9366 C   0  0  0  0  0  0
  -10.5797    1.6004   -3.2177 C   0  0  0  0  0  0
  -11.1384    2.1341   -1.9085 C   0  0  0  0  0  0
  -10.2627    2.5976   -0.9935 C   0  0  0  0  0  0
   -8.8208    2.5450   -1.1123 C   0  0  0  0  0  0
   -8.1197    3.2363   -0.3722 O   0  0  0  0  0  0
  -12.5880    2.4158   -1.7573 C   0  0  0  0  0  0
  -13.3078    3.0814   -2.7651 C   0  0  0  0  0  0
  -12.6945    3.5047   -3.8951 F   0  0  0  0  0  0
  -14.6702    3.3379   -2.6129 C   0  0  0  0  0  0
  -15.3351    2.9363   -1.4576 C   0  0  0  0  0  0
  -14.6388    2.2743   -0.4489 C   0  0  0  0  0  0
  -15.4785    1.7783    0.9777 Cl  0  0  0  0  0  0
  -13.2729    2.0134   -0.5963 C   0  0  0  0  0  0
  -12.6162    1.3541    0.3891 F   0  0  0  0  0  0
   -6.3087    0.5417   -1.0534 C   0  0  0  0  0  0
   -4.9342    0.4737   -0.8453 C   0  0  0  0  0  0
   -4.4039   -0.1502    0.2777 C   0  0  0  0  0  0
   -5.2872   -0.8225    1.1303 C   0  0  0  0  0  0
   -6.6554   -0.7899    0.8368 C   0  0  0  0  0  0
   -7.1723   -0.1123   -0.2246 N   0  0  0  0  0  0
   -2.9371   -0.0445    0.5102 C   0  0  0  0  0  0
   -2.1790   -1.2067    0.6835 C   0  0  0  0  0  0
   -0.7921   -1.1449    0.8107 C   0  0  0  0  0  0
   -0.1235    0.0804    0.7683 C   0  0  0  0  0  0
    1.2774    0.0608    0.8966 N   0  0  0  0  0  0
    2.1875    1.0738    0.6994 C   0  0  0  0  0  0
    3.4807    0.7869    0.9909 O   0  0  0  0  0  0
    4.1151    1.9477    0.6878 C   0  0  0  0  0  0
    5.6096    2.0354    0.8832 C   0  0  0  0  0  0
    6.3254    1.0942    0.0091 C   0  0  0  0  0  0
    6.8889    0.3535   -0.6783 N   0  0  0  0  0  0
    3.3022    2.8723    0.2431 N   0  0  0  0  0  0
    2.0356    2.2962    0.2469 N   0  0  0  0  0  0
   -0.8763    1.2537    0.6296 C   0  0  0  0  0  0
   -2.2672    1.2009    0.4956 C   0  0  0  0  0  0
   -2.9770    2.4155    0.4836 N   0  0  0  0  0  0
   -3.1010    3.3038   -0.5299 C   0  0  0  0  0  0
   -3.6569    4.3804   -0.3169 O   0  0  0  0  0  0
   -0.4743    3.3778   -1.3940 H   0  0  0  0  0  0
   -1.2819    4.7856   -2.0695 H   0  0  0  0  0  0
   -0.7673    3.4688   -3.1168 H   0  0  0  0  0  0
   -2.3835    1.9390   -2.0663 H   0  0  0  0  0  0
   -3.8630    4.4777   -2.9716 H   0  0  0  0  0  0
   -2.9750    3.4518   -4.0333 H   0  0  0  0  0  0
   -5.1453    2.7955   -4.4029 H   0  0  0  0  0  0
   -4.4826    1.5131   -3.4903 H   0  0  0  0  0  0
   -5.6819    3.1186   -1.4819 H   0  0  0  0  0  0
   -6.6308    3.5152   -2.8568 H   0  0  0  0  0  0
   -6.7408    0.8235   -3.0846 H   0  0  0  0  0  0
   -8.7333    0.4699   -3.8116 H   0  0  0  0  0  0
   -9.4853    0.0371   -2.3103 H   0  0  0  0  0  0
  -10.3902    2.4293   -3.9008 H   0  0  0  0  0  0
  -11.2826    0.9244   -3.7056 H   0  0  0  0  0  0
  -10.6465    3.0780   -0.1040 H   0  0  0  0  0  0
  -15.2123    3.8540   -3.3917 H   0  0  0  0  0  0
  -16.3903    3.1397   -1.3472 H   0  0  0  0  0  0
   -4.2515    0.9527   -1.5134 H   0  0  0  0  0  0
   -4.9272   -1.3403    2.0072 H   0  0  0  0  0  0
   -7.3656   -1.2933    1.4759 H   0  0  0  0  0  0
   -2.6636   -2.1724    0.6946 H   0  0  0  0  0  0
   -0.2375   -2.0652    0.9299 H   0  0  0  0  0  0
    1.6269   -0.8591    1.1219 H   0  0  0  0  0  0
    5.9852    3.0358    0.6664 H   0  0  0  0  0  0
    5.8875    1.8093    1.9127 H   0  0  0  0  0  0
   -0.4028    2.2218    0.6570 H   0  0  0  0  0  0
   -3.4548    2.6406    1.3440 H   0  0  0  0  0  0
  1  2  1  0  0  0
  1 47  1  0  0  0
  1 48  1  0  0  0
  1 49  1  0  0  0
  2  3  1  0  0  0
  2 45  1  0  0  0
  2 50  1  0  0  0
  3  4  1  0  0  0
  3 51  1  0  0  0
  3 52  1  0  0  0
  4  5  1  0  0  0
  4 53  1  0  0  0
  4 54  1  0  0  0
  5  6  1  0  0  0
  5 55  1  0  0  0
  5 56  1  0  0  0
  6  7  1  0  0  0
  6 23  1  0  0  0
  6 57  1  0  0  0
  7  8  1  0  0  0
  7 12  1  0  0  0
  8  9  1  0  0  0
  8 58  1  0  0  0
  8 59  1  0  0  0
  9 10  1  0  0  0
  9 60  1  0  0  0
  9 61  1  0  0  0
 10 11  2  0  0  0
 10 14  1  0  0  0
 11 12  1  0  0  0
 11 62  1  0  0  0
 12 13  2  0  0  0
 14 15  2  0  0  0
 14 21  1  0  0  0
 15 16  1  0  0  0
 15 17  1  0  0  0
 17 18  2  0  0  0
 17 63  1  0  0  0
 18 19  1  0  0  0
 18 64  1  0  0  0
 19 20  1  0  0  0
 19 21  2  0  0  0
 21 22  1  0  0  0
 23 24  1  0  0  0
 23 28  2  0  0  0
 24 25  2  0  0  0
 24 65  1  0  0  0
 25 26  1  0  0  0
 25 29  1  0  0  0
 26 27  2  0  0  0
 26 66  1  0  0  0
 27 28  1  0  0  0
 27 67  1  0  0  0
 29 30  2  0  0  0
 29 43  1  0  0  0
 30 31  1  0  0  0
 30 68  1  0  0  0
 31 32  2  0  0  0
 31 69  1  0  0  0
 32 33  1  0  0  0
 32 42  1  0  0  0
 33 34  1  0  0  0
 33 70  1  0  0  0
 34 35  1  0  0  0
 34 41  2  0  0  0
 35 36  1  0  0  0
 36 37  1  0  0  0
 36 40  2  0  0  0
 37 38  1  0  0  0
 37 71  1  0  0  0
 37 72  1  0  0  0
 38 39  3  0  0  0
 40 41  1  0  0  0
 42 43  2  0  0  0
 42 73  1  0  0  0
 43 44  1  0  0  0
 44 45  1  0  0  0
 44 74  1  0  0  0
 45 46  2  0  0  0
M  END
> <chembl_id>
CHEMBL4107446

> <chembl_pref_name>
None

> <i_m_ct_stereo_status>
1

> <s_m_source_file>
sdf/actives_sanitized.sdf

> <i_m_source_file_index>
16

> <i_lp_mmshare_version>
49012

> <i_f3d_flags>
0

> <s_epik_input>
TiNDW0NIMl1jKG5uMSlvYzFbTkhdYyhbY0hdW2NIXTIpW2NIXWMoYzJjKFtjSF1jMzQpW2NIXVtjSF1uNClbTkhdQyg9TylbQ0BIXShbQ0gzXSlbQ0gyXVtDSDJdW0NIMl1bQ0BASF0zTjVbQ0gyXVtDSDJdQyg9W0NIXUM1PU8pYzZjKEYpW2NIXVtjSF1jKENsKWM2Rg==

> <s_epik_cmdline>
J2VwaWtfcHl0aG9uJywgJy1waHQnLCAnMC41JywgJy1waCcsICc3LjUnLCAnLW50JywgJy1tYScsICcyMDAnLCAnLWltYWUnLCAnPGluZmlsZS5tYWU+JywgJy1vbWFlJywgJzxvdXRmaWxlLm1hZT4n

> <r_lp_tautomer_probability>
1

> <r_epik_Ionization_Penalty>
  0.0001

> <r_epik_Ionization_Penalty_Charging>
  0.0000

> <r_epik_Ionization_Penalty_Neutral>
  0.0001

> <r_epik_State_Penalty>
 -0.0000

> <r_epik_Charging_Adjusted_Penalty>
0

> <i_epik_Tot_Q>
0

> <i_epik_Tot_abs_Q>
0

> <s_lp_Force_Field>
OPLS3e

> <r_lp_Energy>
93.091792

> <b_lp_Chiralities_Consistent>
1

> <s_lp_Variant>
sdf/actives_sanitized.sdf:16-1

$$$$
sdf/actives_sanitized.sdf:17
                    3D
 Schrodinger Suite 2020-1.
 64 68  0  0  1  0            999 V2000
   -5.2640    1.7509   -0.8023 C   0  0  0  0  0  0
   -4.1501    0.9786   -1.5385 C   0  0  2  0  0  0
   -2.7716    1.6936   -1.4168 C   0  0  0  0  0  0
   -2.0992    1.5936   -0.0215 C   0  0  0  0  0  0
   -0.5488    1.5001   -0.0506 C   0  0  0  0  0  0
    0.0413    0.0602   -0.1973 C   0  0  2  0  0  0
    1.5225    0.0099   -0.1093 N   0  0  0  0  0  0
    2.3367    1.0826   -0.7568 C   0  0  0  0  0  0
    3.7647    0.6194   -1.1551 C   0  0  0  0  0  0
    4.3612   -0.1849   -0.0167 C   0  0  0  0  0  0
    3.5440   -0.9649    0.7142 C   0  0  0  0  0  0
    2.1104   -1.0474    0.5421 C   0  0  0  0  0  0
    1.4959   -2.0291    0.9636 O   0  0  0  0  0  0
    5.8308   -0.3174    0.1247 C   0  0  0  0  0  0
    6.4570    0.3449    1.1937 C   0  0  0  0  0  0
    5.7178    1.0655    2.0725 F   0  0  0  0  0  0
    7.8418    0.2721    1.3639 C   0  0  0  0  0  0
    8.6090    1.0852    2.6814 Cl  0  0  0  0  0  0
    8.6160   -0.4583    0.4663 C   0  0  0  0  0  0
    8.0116   -1.1165   -0.6012 C   0  0  0  0  0  0
    6.6262   -1.0530   -0.7832 C   0  0  0  0  0  0
    6.0561   -1.7791   -1.9162 C   0  0  0  0  0  0
    5.6040   -2.3537   -2.8131 N   0  0  0  0  0  0
   -0.5206   -0.6709   -1.4194 C   0  0  0  0  0  0
   -1.7106   -1.3901   -1.2966 C   0  0  0  0  0  0
   -2.3674   -1.8232   -2.4509 C   0  0  0  0  0  0
   -1.7383   -1.6383   -3.6880 C   0  0  0  0  0  0
   -0.4986   -0.9962   -3.7241 C   0  0  0  0  0  0
    0.1052   -0.4955   -2.6160 N   0  0  0  0  0  0
   -3.7397   -2.3773   -2.3424 C   0  0  0  0  0  0
   -3.9265   -3.5989   -1.6830 C   0  0  0  0  0  0
   -5.1982   -4.1512   -1.5409 C   0  0  0  0  0  0
   -6.3076   -3.4846   -2.0545 C   0  0  0  0  0  0
   -6.1458   -2.2629   -2.7041 C   0  0  0  0  0  0
   -4.8746   -1.6953   -2.8386 C   0  0  0  0  0  0
   -4.8008   -0.4741   -3.5277 N   0  0  0  0  0  0
   -4.5228    0.7521   -3.0282 C   0  0  0  0  0  0
   -4.5658    1.7272   -3.7774 O   0  0  0  0  0  0
   -6.2192    1.2267   -0.8630 H   0  0  0  0  0  0
   -5.4106    2.7485   -1.2195 H   0  0  0  0  0  0
   -5.0284    1.8680    0.2558 H   0  0  0  0  0  0
   -4.0723    0.0122   -1.0459 H   0  0  0  0  0  0
   -2.0935    1.2927   -2.1693 H   0  0  0  0  0  0
   -2.8704    2.7453   -1.6923 H   0  0  0  0  0  0
   -2.3920    2.4711    0.5566 H   0  0  0  0  0  0
   -2.4942    0.7464    0.5405 H   0  0  0  0  0  0
   -0.1696    2.1641   -0.8278 H   0  0  0  0  0  0
   -0.1766    1.9114    0.8889 H   0  0  0  0  0  0
   -0.3450   -0.4762    0.6718 H   0  0  0  0  0  0
    1.7996    1.5794   -1.5645 H   0  0  0  0  0  0
    2.4626    1.8475    0.0107 H   0  0  0  0  0  0
    3.6751   -0.0173   -2.0361 H   0  0  0  0  0  0
    4.3933    1.4684   -1.4253 H   0  0  0  0  0  0
    3.9777   -1.6103    1.4655 H   0  0  0  0  0  0
    9.6871   -0.5168    0.5948 H   0  0  0  0  0  0
    8.6345   -1.6785   -1.2838 H   0  0  0  0  0  0
   -2.1855   -1.4950   -0.3314 H   0  0  0  0  0  0
   -2.2099   -1.9661   -4.6030 H   0  0  0  0  0  0
    0.0110   -0.8365   -4.6627 H   0  0  0  0  0  0
   -3.0760   -4.1302   -1.2799 H   0  0  0  0  0  0
   -5.3227   -5.0973   -1.0348 H   0  0  0  0  0  0
   -7.2929   -3.9141   -1.9489 H   0  0  0  0  0  0
   -7.0162   -1.7563   -3.0965 H   0  0  0  0  0  0
   -5.1012   -0.5087   -4.4909 H   0  0  0  0  0  0
  1  2  1  0  0  0
  1 39  1  0  0  0
  1 40  1  0  0  0
  1 41  1  0  0  0
  2  3  1  0  0  0
  2 37  1  0  0  0
  2 42  1  0  0  0
  3  4  1  0  0  0
  3 43  1  0  0  0
  3 44  1  0  0  0
  4  5  1  0  0  0
  4 45  1  0  0  0
  4 46  1  0  0  0
  5  6  1  0  0  0
  5 47  1  0  0  0
  5 48  1  0  0  0
  6  7  1  0  0  0
  6 24  1  0  0  0
  6 49  1  0  0  0
  7  8  1  0  0  0
  7 12  1  0  0  0
  8  9  1  0  0  0
  8 50  1  0  0  0
  8 51  1  0  0  0
  9 10  1  0  0  0
  9 52  1  0  0  0
  9 53  1  0  0  0
 10 11  2  0  0  0
 10 14  1  0  0  0
 11 12  1  0  0  0
 11 54  1  0  0  0
 12 13  2  0  0  0
 14 15  2  0  0  0
 14 21  1  0  0  0
 15 16  1  0  0  0
 15 17  1  0  0  0
 17 18  1  0  0  0
 17 19  2  0  0  0
 19 20  1  0  0  0
 19 55  1  0  0  0
 20 21  2  0  0  0
 20 56  1  0  0  0
 21 22  1  0  0  0
 22 23  3  0  0  0
 24 25  1  0  0  0
 24 29  2  0  0  0
 25 26  2  0  0  0
 25 57  1  0  0  0
 26 27  1  0  0  0
 26 30  1  0  0  0
 27 28  2  0  0  0
 27 58  1  0  0  0
 28 29  1  0  0  0
 28 59  1  0  0  0
 30 31  2  0  0  0
 30 35  1  0  0  0
 31 32  1  0  0  0
 31 60  1  0  0  0
 32 33  2  0  0  0
 32 61  1  0  0  0
 33 34  1  0  0  0
 33 62  1  0  0  0
 34 35  2  0  0  0
 34 63  1  0  0  0
 35 36  1  0  0  0
 36 37  1  0  0  0
 36 64  1  0  0  0
 37 38  2  0  0  0
M  END
> <chembl_id>
CHEMBL4108491

> <chembl_pref_name>
None

> <i_m_ct_stereo_status>
1

> <s_m_source_file>
sdf/actives_sanitized.sdf

> <i_m_source_file_index>
17

> <i_lp_mmshare_version>
49012

> <i_f3d_flags>
0

> <s_epik_input>
bjFbY0hdW2NIXWMoW2NIXWMxMiljM2MoW2NIXVtjSF1bY0hdW2NIXTMpW05IXUMoPU8pW0NASF0oW0NIM10pW0NIMl1bQ0gyXVtDSDJdW0NAQEhdMk40W0NIMl1bQ0gyXUMoPVtDSF1DND1PKWM1YyhGKWMoQ2wpW2NIXVtjSF1jNUMjTg==

> <s_epik_cmdline>
J2VwaWtfcHl0aG9uJywgJy1waHQnLCAnMC41JywgJy1waCcsICc3LjUnLCAnLW50JywgJy1tYScsICcyMDAnLCAnLWltYWUnLCAnPGluZmlsZS5tYWU+JywgJy1vbWFlJywgJzxvdXRmaWxlLm1hZT4n

> <r_lp_tautomer_probability>
1

> <r_epik_Ionization_Penalty>
  0.0001

> <r_epik_Ionization_Penalty_Charging>
  0.0000

> <r_epik_Ionization_Penalty_Neutral>
  0.0001

> <r_epik_State_Penalty>
 -0.0000

> <r_epik_Charging_Adjusted_Penalty>
0

> <i_epik_Tot_Q>
0

> <i_epik_Tot_abs_Q>
0

> <s_lp_Force_Field>
OPLS3e

> <r_lp_Energy>
93.013775

> <b_lp_Chiralities_Consistent>
1

> <s_lp_Variant>
sdf/actives_sanitized.sdf:17-1

$$$$
sdf/actives_sanitized.sdf:18
                    3D
 Schrodinger Suite 2020-1.
 69 73  0  0  1  0            999 V2000
   -3.2258    1.4660    0.0544 C   0  0  0  0  0  0
   -2.0716    0.6723    0.2948 O   0  0  0  0  0  0
   -0.8374    1.1532    0.0428 C   0  0  0  0  0  0
   -0.6077    2.2850   -0.3890 O   0  0  0  0  0  0
    0.0899    0.1649    0.3600 N   0  0  0  0  0  0
    1.4903    0.1819    0.2428 C   0  0  0  0  0  0
    2.1717   -0.9142    0.7742 C   0  0  0  0  0  0
    3.5613   -0.9885    0.7003 C   0  0  0  0  0  0
    4.3065    0.0244    0.0870 C   0  0  0  0  0  0
    3.6198    1.1388   -0.4404 C   0  0  0  0  0  0
    4.2803    2.1815   -1.1043 N   0  0  0  0  0  0
    4.8715    3.2683   -0.5596 C   0  0  0  0  0  0
    5.3633    4.1128   -1.3084 O   0  0  0  0  0  0
    4.9696    3.4871    0.9756 C   0  0  2  0  0  0
    4.4045    4.8615    1.3853 C   0  0  0  0  0  0
    6.4268    3.3171    1.3991 C   0  0  0  0  0  0
    6.8433    2.7026    2.5224 C   0  0  0  0  0  0
    8.2863    2.2742    2.7713 C   0  0  0  0  0  0
    8.5127    0.7349    2.5938 C   0  0  2  0  0  0
    9.9170    0.2836    2.7839 N   0  0  0  0  0  0
   11.0533    1.0953    2.2526 C   0  0  0  0  0  0
   12.3903    0.7792    2.9731 C   0  0  0  0  0  0
   12.5815   -0.7269    3.0087 C   0  0  0  0  0  0
   11.4851   -1.4957    3.1634 C   0  0  0  0  0  0
   10.1220   -1.0090    3.2098 C   0  0  0  0  0  0
    9.2315   -1.7369    3.6537 O   0  0  0  0  0  0
   13.9332   -1.3183    3.1650 C   0  0  0  0  0  0
   14.3381   -2.3854    2.3447 C   0  0  0  0  0  0
   13.5072   -2.8829    1.3980 F   0  0  0  0  0  0
   15.6091   -2.9429    2.4796 C   0  0  0  0  0  0
   16.4950   -2.4450    3.4311 C   0  0  0  0  0  0
   16.1116   -1.3866    4.2524 C   0  0  0  0  0  0
   17.2221   -0.7811    5.4299 Cl  0  0  0  0  0  0
   14.8376   -0.8243    4.1221 C   0  0  0  0  0  0
   14.4808    0.1925    4.9433 F   0  0  0  0  0  0
    7.8472    0.2320    1.3008 C   0  0  0  0  0  0
    6.4683    0.0053    1.3003 C   0  0  0  0  0  0
    5.7892   -0.0668    0.0840 C   0  0  0  0  0  0
    6.5415   -0.1017   -1.0971 C   0  0  0  0  0  0
    7.9332   -0.0014   -1.0122 C   0  0  0  0  0  0
    8.5902    0.1930    0.1611 N   0  0  0  0  0  0
    2.2243    1.2064   -0.3736 C   0  0  0  0  0  0
   -4.1222    0.9073    0.3234 H   0  0  0  0  0  0
   -3.2997    1.7394   -0.9992 H   0  0  0  0  0  0
   -3.2045    2.3806    0.6491 H   0  0  0  0  0  0
   -0.2949   -0.6924    0.7286 H   0  0  0  0  0  0
    1.6297   -1.7171    1.2539 H   0  0  0  0  0  0
    4.0637   -1.8438    1.1291 H   0  0  0  0  0  0
    4.2483    2.1385   -2.1125 H   0  0  0  0  0  0
    4.3804    2.7317    1.4971 H   0  0  0  0  0  0
    4.9607    5.6848    0.9339 H   0  0  0  0  0  0
    4.4494    4.9939    2.4670 H   0  0  0  0  0  0
    3.3589    4.9658    1.0920 H   0  0  0  0  0  0
    7.1744    3.6495    0.6910 H   0  0  0  0  0  0
    6.1139    2.3425    3.2336 H   0  0  0  0  0  0
    8.9056    2.8287    2.0672 H   0  0  0  0  0  0
    8.5862    2.5959    3.7690 H   0  0  0  0  0  0
    7.9339    0.2902    3.4061 H   0  0  0  0  0  0
   11.2022    0.7384    1.2320 H   0  0  0  0  0  0
   10.8429    2.1572    2.1501 H   0  0  0  0  0  0
   13.2272    1.2748    2.4798 H   0  0  0  0  0  0
   12.3269    1.1687    3.9900 H   0  0  0  0  0  0
   11.6137   -2.5609    3.2965 H   0  0  0  0  0  0
   15.9099   -3.7608    1.8415 H   0  0  0  0  0  0
   17.4785   -2.8811    3.5286 H   0  0  0  0  0  0
    5.9096    0.0682    2.2235 H   0  0  0  0  0  0
    6.0570   -0.1714   -2.0600 H   0  0  0  0  0  0
    8.5402   -0.0186   -1.9052 H   0  0  0  0  0  0
    1.7335    2.0610   -0.8120 H   0  0  0  0  0  0
  1  2  1  0  0  0
  1 43  1  0  0  0
  1 44  1  0  0  0
  1 45  1  0  0  0
  2  3  1  0  0  0
  3  4  2  0  0  0
  3  5  1  0  0  0
  5  6  1  0  0  0
  5 46  1  0  0  0
  6  7  2  0  0  0
  6 42  1  0  0  0
  7  8  1  0  0  0
  7 47  1  0  0  0
  8  9  2  0  0  0
  8 48  1  0  0  0
  9 10  1  0  0  0
  9 38  1  0  0  0
 10 11  1  0  0  0
 10 42  2  0  0  0
 11 12  1  0  0  0
 11 49  1  0  0  0
 12 13  2  0  0  0
 12 14  1  0  0  0
 14 15  1  0  0  0
 14 16  1  0  0  0
 14 50  1  0  0  0
 15 51  1  0  0  0
 15 52  1  0  0  0
 15 53  1  0  0  0
 16 17  2  0  0  0
 16 54  1  0  0  0
 17 18  1  0  0  0
 17 55  1  0  0  0
 18 19  1  0  0  0
 18 56  1  0  0  0
 18 57  1  0  0  0
 19 20  1  0  0  0
 19 36  1  0  0  0
 19 58  1  0  0  0
 20 21  1  0  0  0
 20 25  1  0  0  0
 21 22  1  0  0  0
 21 59  1  0  0  0
 21 60  1  0  0  0
 22 23  1  0  0  0
 22 61  1  0  0  0
 22 62  1  0  0  0
 23 24  2  0  0  0
 23 27  1  0  0  0
 24 25  1  0  0  0
 24 63  1  0  0  0
 25 26  2  0  0  0
 27 28  2  0  0  0
 27 34  1  0  0  0
 28 29  1  0  0  0
 28 30  1  0  0  0
 30 31  2  0  0  0
 30 64  1  0  0  0
 31 32  1  0  0  0
 31 65  1  0  0  0
 32 33  1  0  0  0
 32 34  2  0  0  0
 34 35  1  0  0  0
 36 37  1  0  0  0
 36 41  2  0  0  0
 37 38  2  0  0  0
 37 66  1  0  0  0
 38 39  1  0  0  0
 39 40  2  0  0  0
 39 67  1  0  0  0
 40 41  1  0  0  0
 40 68  1  0  0  0
 42 69  1  0  0  0
M  END
> <chembl_id>
CHEMBL4112841

> <chembl_pref_name>
None

> <i_m_ct_stereo_status>
1

> <s_m_source_file>
sdf/actives_sanitized.sdf

> <i_m_source_file_index>
18

> <i_lp_mmshare_version>
49012

> <i_f3d_flags>
0

> <s_epik_input>
W0NIM11PQyg9TylbTkhdYyhbY0hdW2NIXTEpW2NIXWMoYzEyKVtOSF1DKD1PKVtDQEhdKFtDSDNdKS9bQ0hdPVtDSF0vW0NIMl1bQ0BASF0oYzNbY0hdYzJbY0hdW2NIXW4zKU40W0NIMl1bQ0gyXUMoPVtDSF1DND1PKWM1YyhGKVtjSF1bY0hdYyhDbCljNUY=

> <s_epik_cmdline>
J2VwaWtfcHl0aG9uJywgJy1waHQnLCAnMC41JywgJy1waCcsICc3LjUnLCAnLW50JywgJy1tYScsICcyMDAnLCAnLWltYWUnLCAnPGluZmlsZS5tYWU+JywgJy1vbWFlJywgJzxvdXRmaWxlLm1hZT4n

> <r_lp_tautomer_probability>
1

> <r_epik_Ionization_Penalty>
  0.0000

> <r_epik_Ionization_Penalty_Charging>
  0.0000

> <r_epik_Ionization_Penalty_Neutral>
  0.0000

> <r_epik_State_Penalty>
 -0.0000

> <r_epik_Charging_Adjusted_Penalty>
0

> <i_epik_Tot_Q>
0

> <i_epik_Tot_abs_Q>
0

> <s_epik_Chemistry_Notes>
This compound has an ester and may undergo hydrolysis at high or low pH.

> <s_lp_Force_Field>
OPLS3e

> <r_lp_Energy>
96.202329

> <b_lp_Chiralities_Consistent>
1

> <s_lp_Variant>
sdf/actives_sanitized.sdf:18-1

$$$$
sdf/actives_sanitized.sdf:19
                    3D
 Schrodinger Suite 2020-1.
 72 76  0  0  1  0            999 V2000
   -3.4494    0.2171    0.1569 C   0  0  0  0  0  0
   -2.1566   -0.2923   -0.1404 O   0  0  0  0  0  0
   -1.0492    0.4225    0.1445 C   0  0  0  0  0  0
   -1.0592    1.5395    0.6659 O   0  0  0  0  0  0
    0.0613   -0.3181   -0.2496 N   0  0  0  0  0  0
    1.4282   -0.0036   -0.1626 C   0  0  0  0  0  0
    2.3146   -0.9616   -0.6568 C   0  0  0  0  0  0
    3.6887   -0.7389   -0.6214 C   0  0  0  0  0  0
    4.2080    0.4475   -0.0923 C   0  0  0  0  0  0
    3.3217    1.4128    0.4296 C   0  0  0  0  0  0
    3.7198    2.6659    0.9236 N   0  0  0  0  0  0
    4.4513    2.9832    2.0163 C   0  0  0  0  0  0
    4.5824    4.1738    2.3001 O   0  0  0  0  0  0
    5.1297    1.9305    2.9378 C   0  0  2  0  0  0
    4.3695    1.8249    4.2760 C   0  0  0  0  0  0
    6.6321    2.3086    3.1446 C   0  0  0  0  0  0
    7.5595    1.3282    3.9057 C   0  0  0  0  0  0
    7.8631   -0.0800    3.3092 C   0  0  0  0  0  0
    8.5376   -0.2209    1.8988 C   0  0  2  0  0  0
    9.9532    0.2423    1.7550 N   0  0  0  0  0  0
   10.7644    0.5789    2.9645 C   0  0  0  0  0  0
   11.9557    1.5138    2.6368 C   0  0  0  0  0  0
   12.7330    0.9170    1.4778 C   0  0  0  0  0  0
   12.0443    0.2370    0.5402 C   0  0  0  0  0  0
   10.6280   -0.0674    0.5889 C   0  0  0  0  0  0
   10.0951   -0.5320   -0.4203 O   0  0  0  0  0  0
   14.1401    1.3114    1.2239 C   0  0  0  0  0  0
   15.1152    0.3307    0.9739 C   0  0  0  0  0  0
   14.7881   -0.9836    0.9720 F   0  0  0  0  0  0
   16.4411    0.6915    0.7358 C   0  0  0  0  0  0
   16.8139    2.0327    0.7458 C   0  0  0  0  0  0
   15.8611    3.0187    0.9938 C   0  0  0  0  0  0
   16.3405    4.6791    0.9994 Cl  0  0  0  0  0  0
   14.5299    2.6625    1.2320 C   0  0  0  0  0  0
   13.6172    3.6389    1.4533 F   0  0  0  0  0  0
    7.5632    0.2633    0.8225 C   0  0  0  0  0  0
    6.3810   -0.2705    0.6697 N   0  0  0  0  0  0
    5.6871    0.5944   -0.0486 C   0  0  0  0  0  0
    6.5049    1.5937   -0.5781 C   0  0  0  0  0  0
    6.2476    2.7900   -1.4623 C   0  0  0  0  0  0
    7.7225    1.3532    0.0039 N   0  0  0  0  0  0
    1.9417    1.1873    0.3747 C   0  0  0  0  0  0
   -4.2100   -0.5020   -0.1467 H   0  0  0  0  0  0
   -3.6344    1.1513   -0.3750 H   0  0  0  0  0  0
   -3.5623    0.3988    1.2267 H   0  0  0  0  0  0
   -0.1393   -1.2180   -0.6606 H   0  0  0  0  0  0
    1.9455   -1.8877   -1.0743 H   0  0  0  0  0  0
    4.3536   -1.4982   -1.0084 H   0  0  0  0  0  0
    3.2759    3.4471    0.4631 H   0  0  0  0  0  0
    5.0625    0.9488    2.4839 H   0  0  0  0  0  0
    3.3168    1.5848    4.1176 H   0  0  0  0  0  0
    4.4115    2.7563    4.8428 H   0  0  0  0  0  0
    4.7821    1.0354    4.9042 H   0  0  0  0  0  0
    7.0984    2.5526    2.1933 H   0  0  0  0  0  0
    6.6666    3.2522    3.6931 H   0  0  0  0  0  0
    8.4923    1.8614    4.0742 H   0  0  0  0  0  0
    7.1516    1.1830    4.9064 H   0  0  0  0  0  0
    8.4744   -0.6234    4.0305 H   0  0  0  0  0  0
    6.9254   -0.6380    3.3006 H   0  0  0  0  0  0
    8.6139   -1.3018    1.7633 H   0  0  0  0  0  0
   10.2109    0.8122    3.8674 H   0  0  0  0  0  0
   11.2505   -0.3631    3.2265 H   0  0  0  0  0  0
   11.5582    2.4909    2.3598 H   0  0  0  0  0  0
   12.5973    1.6573    3.5068 H   0  0  0  0  0  0
   12.5722   -0.1011   -0.3411 H   0  0  0  0  0  0
   17.1827   -0.0705    0.5457 H   0  0  0  0  0  0
   17.8428    2.3048    0.5603 H   0  0  0  0  0  0
    5.2398    2.7760   -1.8776 H   0  0  0  0  0  0
    6.9407    2.8271   -2.3031 H   0  0  0  0  0  0
    6.3553    3.7248   -0.9116 H   0  0  0  0  0  0
    8.5430    1.9384   -0.0613 H   0  0  0  0  0  0
    1.2860    1.9536    0.7569 H   0  0  0  0  0  0
  1  2  1  0  0  0
  1 43  1  0  0  0
  1 44  1  0  0  0
  1 45  1  0  0  0
  2  3  1  0  0  0
  3  4  2  0  0  0
  3  5  1  0  0  0
  5  6  1  0  0  0
  5 46  1  0  0  0
  6  7  2  0  0  0
  6 42  1  0  0  0
  7  8  1  0  0  0
  7 47  1  0  0  0
  8  9  2  0  0  0
  8 48  1  0  0  0
  9 10  1  0  0  0
  9 38  1  0  0  0
 10 11  1  0  0  0
 10 42  2  0  0  0
 11 12  1  0  0  0
 11 49  1  0  0  0
 12 13  2  0  0  0
 12 14  1  0  0  0
 14 15  1  0  0  0
 14 16  1  0  0  0
 14 50  1  0  0  0
 15 51  1  0  0  0
 15 52  1  0  0  0
 15 53  1  0  0  0
 16 17  1  0  0  0
 16 54  1  0  0  0
 16 55  1  0  0  0
 17 18  1  0  0  0
 17 56  1  0  0  0
 17 57  1  0  0  0
 18 19  1  0  0  0
 18 58  1  0  0  0
 18 59  1  0  0  0
 19 20  1  0  0  0
 19 36  1  0  0  0
 19 60  1  0  0  0
 20 21  1  0  0  0
 20 25  1  0  0  0
 21 22  1  0  0  0
 21 61  1  0  0  0
 21 62  1  0  0  0
 22 23  1  0  0  0
 22 63  1  0  0  0
 22 64  1  0  0  0
 23 24  2  0  0  0
 23 27  1  0  0  0
 24 25  1  0  0  0
 24 65  1  0  0  0
 25 26  2  0  0  0
 27 28  2  0  0  0
 27 34  1  0  0  0
 28 29  1  0  0  0
 28 30  1  0  0  0
 30 31  2  0  0  0
 30 66  1  0  0  0
 31 32  1  0  0  0
 31 67  1  0  0  0
 32 33  1  0  0  0
 32 34  2  0  0  0
 34 35  1  0  0  0
 36 37  2  0  0  0
 36 41  1  0  0  0
 37 38  1  0  0  0
 38 39  2  0  0  0
 39 40  1  0  0  0
 39 41  1  0  0  0
 40 68  1  0  0  0
 40 69  1  0  0  0
 40 70  1  0  0  0
 41 71  1  0  0  0
 42 72  1  0  0  0
M  END
> <chembl_id>
CHEMBL4112648

> <chembl_pref_name>
None

> <i_m_ct_stereo_status>
1

> <s_m_source_file>
sdf/actives_sanitized.sdf

> <i_m_source_file_index>
19

> <i_lp_mmshare_version>
49012

> <i_f3d_flags>
0

> <s_epik_input>
W0NIM11PQyg9TylbTkhdYyhbY0hdW2NIXTEpW2NIXWMoYzEyKVtOSF1DKD1PKVtDQEhdKFtDSDNdKVtDSDJdW0NIMl1bQ0gyXVtDQEBIXShjM25jMmMoW0NIM10pW25IXTMpTjRbQ0gyXVtDSDJdQyg9W0NIXUM0PU8pYzVjKEYpW2NIXVtjSF1jKENsKWM1Rg==

> <s_epik_cmdline>
J2VwaWtfcHl0aG9uJywgJy1waHQnLCAnMC41JywgJy1waCcsICc3LjUnLCAnLW50JywgJy1tYScsICcyMDAnLCAnLWltYWUnLCAnPGluZmlsZS5tYWU+JywgJy1vbWFlJywgJzxvdXRmaWxlLm1hZT4n

> <r_lp_tautomer_probability>
0.499999999999999

> <r_epik_Ionization_Penalty>
  0.3264

> <r_epik_Ionization_Penalty_Charging>
  0.3264

> <r_epik_Ionization_Penalty_Neutral>
  0.0000

> <r_epik_State_Penalty>
  0.5924

> <r_epik_Charging_Adjusted_Penalty>
0.918814585013762

> <i_epik_Tot_Q>
0

> <i_epik_Tot_abs_Q>
0

> <s_epik_Chemistry_Notes>
This compound has an ester and may undergo hydrolysis at high or low pH.

> <s_lp_Force_Field>
OPLS3e

> <r_lp_Energy>
95.221237

> <b_lp_Chiralities_Consistent>
1

> <s_lp_Variant>
sdf/actives_sanitized.sdf:19-1

$$$$
sdf/actives_sanitized.sdf:19
                    3D
 Schrodinger Suite 2020-1.
 73 77  0  0  1  0            999 V2000
   -3.3869    1.2162    0.5616 C   0  0  0  0  0  0
   -2.2117    0.4182    0.6065 O   0  0  0  0  0  0
   -0.9998    0.9575    0.3660 C   0  0  0  0  0  0
   -0.8065    2.1464    0.1020 O   0  0  0  0  0  0
   -0.0433   -0.0465    0.4818 N   0  0  0  0  0  0
    1.3473    0.0267    0.2974 C   0  0  0  0  0  0
    2.0916   -1.0786    0.7140 C   0  0  0  0  0  0
    3.4768   -1.0978    0.5643 C   0  0  0  0  0  0
    4.1482   -0.0119   -0.0047 C   0  0  0  0  0  0
    3.4010    1.1037   -0.4427 C   0  0  0  0  0  0
    3.9710    2.1615   -1.1690 N   0  0  0  0  0  0
    4.4724    3.3278   -0.7036 C   0  0  0  0  0  0
    4.7921    4.2004   -1.5097 O   0  0  0  0  0  0
    4.6614    3.6045    0.8146 C   0  0  2  0  0  0
    3.4022    4.2980    1.3755 C   0  0  0  0  0  0
    5.9392    4.4557    1.1372 C   0  0  0  0  0  0
    7.3134    3.9763    0.5797 C   0  0  0  0  0  0
    8.1217    3.0049    1.4866 C   0  0  0  0  0  0
    8.7731    1.7729    0.7730 C   0  0  2  0  0  0
    9.6980    2.1601   -0.3221 N   0  0  0  0  0  0
    9.2349    2.1463   -1.7441 C   0  0  0  0  0  0
   10.0002    3.1593   -2.6365 C   0  0  0  0  0  0
   11.4896    3.0141   -2.3759 C   0  0  0  0  0  0
   11.8786    2.7544   -1.1111 C   0  0  0  0  0  0
   10.9854    2.5146    0.0026 C   0  0  0  0  0  0
   11.3932    2.6453    1.1581 O   0  0  0  0  0  0
   12.4873    3.4287   -3.3952 C   0  0  0  0  0  0
   13.6044    2.6184   -3.6653 C   0  0  0  0  0  0
   13.7824    1.4455   -3.0121 F   0  0  0  0  0  0
   14.5436    2.9976   -4.6238 C   0  0  0  0  0  0
   14.3825    4.1855   -5.3308 C   0  0  0  0  0  0
   13.2804    5.0001   -5.0801 C   0  0  0  0  0  0
   13.0968    6.4732   -5.9650 Cl  0  0  0  0  0  0
   12.3366    4.6263   -4.1181 C   0  0  0  0  0  0
   11.2833    5.4446   -3.8805 F   0  0  0  0  0  0
    7.7112    0.7686    0.3369 C   0  0  0  0  0  0
    6.3676    0.9784    0.4259 N   0  3  0  0  0  0
    5.6356   -0.0782   -0.0556 C   0  0  0  0  0  0
    6.5785   -1.0372   -0.4538 C   0  0  0  0  0  0
    6.4320   -2.4174   -1.0489 C   0  0  0  0  0  0
    7.8371   -0.4909   -0.2064 N   0  0  0  0  0  0
    2.0098    1.1109   -0.2981 C   0  0  0  0  0  0
   -4.2608    0.5993    0.7704 H   0  0  0  0  0  0
   -3.5177    1.6673   -0.4232 H   0  0  0  0  0  0
   -3.3481    2.0133    1.3054 H   0  0  0  0  0  0
   -0.3898   -0.9486    0.7736 H   0  0  0  0  0  0
    1.6015   -1.9302    1.1648 H   0  0  0  0  0  0
    4.0287   -1.9590    0.9135 H   0  0  0  0  0  0
    3.9021    2.0722   -2.1726 H   0  0  0  0  0  0
    4.7413    2.6623    1.3518 H   0  0  0  0  0  0
    2.5069    3.6916    1.2278 H   0  0  0  0  0  0
    3.2243    5.2634    0.8987 H   0  0  0  0  0  0
    3.4945    4.4738    2.4479 H   0  0  0  0  0  0
    5.7721    5.4633    0.7507 H   0  0  0  0  0  0
    6.0240    4.5867    2.2172 H   0  0  0  0  0  0
    7.1817    3.5587   -0.4154 H   0  0  0  0  0  0
    7.9370    4.8557    0.4103 H   0  0  0  0  0  0
    8.9019    3.5752    1.9929 H   0  0  0  0  0  0
    7.4889    2.6436    2.2989 H   0  0  0  0  0  0
    9.3622    1.2620    1.5376 H   0  0  0  0  0  0
    9.4993    1.1575   -2.1219 H   0  0  0  0  0  0
    8.1509    2.2004   -1.8400 H   0  0  0  0  0  0
    9.7591    3.0107   -3.6896 H   0  0  0  0  0  0
    9.6762    4.1628   -2.3566 H   0  0  0  0  0  0
   12.9349    2.7555   -0.8805 H   0  0  0  0  0  0
   15.3974    2.3664   -4.8225 H   0  0  0  0  0  0
   15.1132    4.4717   -6.0733 H   0  0  0  0  0  0
    5.3879   -2.6755   -1.2267 H   0  0  0  0  0  0
    6.8456   -3.1847   -0.3938 H   0  0  0  0  0  0
    6.9472   -2.4991   -2.0064 H   0  0  0  0  0  0
    8.7150   -0.9514   -0.3993 H   0  0  0  0  0  0
    1.4601    1.9580   -0.6786 H   0  0  0  0  0  0
    5.9566    1.8263    0.7900 H   0  0  0  0  0  0
  1  2  1  0  0  0
  1 43  1  0  0  0
  1 44  1  0  0  0
  1 45  1  0  0  0
  2  3  1  0  0  0
  3  4  2  0  0  0
  3  5  1  0  0  0
  5  6  1  0  0  0
  5 46  1  0  0  0
  6  7  2  0  0  0
  6 42  1  0  0  0
  7  8  1  0  0  0
  7 47  1  0  0  0
  8  9  2  0  0  0
  8 48  1  0  0  0
  9 10  1  0  0  0
  9 38  1  0  0  0
 10 11  1  0  0  0
 10 42  2  0  0  0
 11 12  1  0  0  0
 11 49  1  0  0  0
 12 13  2  0  0  0
 12 14  1  0  0  0
 14 15  1  0  0  0
 14 16  1  0  0  0
 14 50  1  0  0  0
 15 51  1  0  0  0
 15 52  1  0  0  0
 15 53  1  0  0  0
 16 17  1  0  0  0
 16 54  1  0  0  0
 16 55  1  0  0  0
 17 18  1  0  0  0
 17 56  1  0  0  0
 17 57  1  0  0  0
 18 19  1  0  0  0
 18 58  1  0  0  0
 18 59  1  0  0  0
 19 20  1  0  0  0
 19 36  1  0  0  0
 19 60  1  0  0  0
 20 21  1  0  0  0
 20 25  1  0  0  0
 21 22  1  0  0  0
 21 61  1  0  0  0
 21 62  1  0  0  0
 22 23  1  0  0  0
 22 63  1  0  0  0
 22 64  1  0  0  0
 23 24  2  0  0  0
 23 27  1  0  0  0
 24 25  1  0  0  0
 24 65  1  0  0  0
 25 26  2  0  0  0
 27 28  2  0  0  0
 27 34  1  0  0  0
 28 29  1  0  0  0
 28 30  1  0  0  0
 30 31  2  0  0  0
 30 66  1  0  0  0
 31 32  1  0  0  0
 31 67  1  0  0  0
 32 33  1  0  0  0
 32 34  2  0  0  0
 34 35  1  0  0  0
 36 37  2  0  0  0
 36 41  1  0  0  0
 37 38  1  0  0  0
 37 73  1  0  0  0
 38 39  2  0  0  0
 39 40  1  0  0  0
 39 41  1  0  0  0
 40 68  1  0  0  0
 40 69  1  0  0  0
 40 70  1  0  0  0
 41 71  1  0  0  0
 42 72  1  0  0  0
M  CHG  1  37   1
M  END
> <chembl_id>
CHEMBL4112648

> <chembl_pref_name>
None

> <i_m_ct_stereo_status>
1

> <s_m_source_file>
sdf/actives_sanitized.sdf

> <i_m_source_file_index>
19

> <i_lp_mmshare_version>
49012

> <i_f3d_flags>
0

> <s_epik_input>
W0NIM11PQyg9TylbTkhdYyhbY0hdW2NIXTEpW2NIXWMoYzEyKVtOSF1DKD1PKVtDQEhdKFtDSDNdKVtDSDJdW0NIMl1bQ0gyXVtDQEBIXShjM25jMmMoW0NIM10pW25IXTMpTjRbQ0gyXVtDSDJdQyg9W0NIXUM0PU8pYzVjKEYpW2NIXVtjSF1jKENsKWM1Rg==

> <s_epik_cmdline>
J2VwaWtfcHl0aG9uJywgJy1waHQnLCAnMC41JywgJy1waCcsICc3LjUnLCAnLW50JywgJy1tYScsICcyMDAnLCAnLWltYWUnLCAnPGluZmlsZS5tYWU+JywgJy1vbWFlJywgJzxvdXRmaWxlLm1hZT4n

> <r_lp_tautomer_probability>
1

> <r_epik_Ionization_Penalty>
  0.7689

> <r_epik_Ionization_Penalty_Charging>
  0.0000

> <r_epik_Ionization_Penalty_Neutral>
  0.7689

> <r_epik_State_Penalty>
  0.5965

> <r_epik_Charging_Adjusted_Penalty>
0.596520724778134

> <i_epik_Tot_Q>
1

> <i_epik_Tot_abs_Q>
1

> <s_epik_Chemistry_Notes>
This compound has an ester and may undergo hydrolysis at high or low pH.

> <s_lp_Force_Field>
OPLS3e

> <r_lp_Energy>
90.098238

> <b_lp_Chiralities_Consistent>
1

> <s_lp_Variant>
sdf/actives_sanitized.sdf:19-2

$$$$
sdf/actives_sanitized.sdf:20
                    3D
 Schrodinger Suite 2020-1.
 64 68  0  0  1  0            999 V2000
   -5.3121    2.8066   -0.5242 C   0  0  0  0  0  0
   -3.9874    2.0324   -0.7013 C   0  0  2  0  0  0
   -3.0422    2.3026    0.5223 C   0  0  0  0  0  0
   -1.8952    1.2945    0.8129 C   0  0  0  0  0  0
   -0.6185    1.4226   -0.0621 C   0  0  0  0  0  0
    0.1227    0.0753   -0.3775 C   0  0  2  0  0  0
    1.6021    0.1852   -0.2926 N   0  0  0  0  0  0
    2.3024   -0.8704    0.4905 C   0  0  0  0  0  0
    3.7038   -0.4157    0.9755 C   0  0  0  0  0  0
    4.4465    0.2056   -0.1920 C   0  0  0  0  0  0
    3.7420    0.9145   -1.0953 C   0  0  0  0  0  0
    2.3002    1.0470   -1.1089 C   0  0  0  0  0  0
    1.7712    1.9166   -1.8023 O   0  0  0  0  0  0
    5.9277    0.2879   -0.1601 C   0  0  0  0  0  0
    6.5400    1.5083    0.1747 C   0  0  0  0  0  0
    5.7814    2.6000    0.4402 F   0  0  0  0  0  0
    7.9314    1.6114    0.2462 C   0  0  0  0  0  0
    8.6810    3.1143    0.6522 Cl  0  0  0  0  0  0
    8.7263    0.4966   -0.0053 C   0  0  0  0  0  0
    8.1361   -0.7224   -0.3260 C   0  0  0  0  0  0
    6.7445   -0.8397   -0.4024 C   0  0  0  0  0  0
    6.1899   -2.1470   -0.7499 C   0  0  0  0  0  0
    5.7497   -3.1814   -1.0241 N   0  0  0  0  0  0
   -0.4189   -0.6164   -1.6517 C   0  0  0  0  0  0
   -1.7862   -0.5903   -1.9124 C   0  0  0  0  0  0
   -2.2927   -1.0272   -3.1311 C   0  0  0  0  0  0
   -1.4031   -1.6125   -4.0394 C   0  0  0  0  0  0
   -0.0486   -1.6869   -3.6962 C   0  0  0  0  0  0
    0.4508   -1.1897   -2.5320 N   0  0  0  0  0  0
   -3.7409   -0.8119   -3.4062 C   0  0  0  0  0  0
   -4.5743   -1.9037   -3.6958 C   0  0  0  0  0  0
   -4.0609   -3.1548   -3.7727 F   0  0  0  0  0  0
   -5.9453   -1.7219   -3.8857 C   0  0  0  0  0  0
   -6.7391   -2.7829   -4.1580 F   0  0  0  0  0  0
   -6.5033   -0.4493   -3.7922 C   0  0  0  0  0  0
   -5.6924    0.6488   -3.5176 C   0  0  0  0  0  0
   -4.3185    0.4779   -3.3195 C   0  0  0  0  0  0
   -3.5215    1.6274   -3.1714 N   0  0  0  0  0  0
   -3.3618    2.4024   -2.0737 C   0  0  0  0  0  0
   -2.7029    3.4372   -2.1647 O   0  0  0  0  0  0
   -6.0104    2.6138   -1.3390 H   0  0  0  0  0  0
   -5.1477    3.8848   -0.4853 H   0  0  0  0  0  0
   -5.8177    2.5178    0.3980 H   0  0  0  0  0  0
   -4.2510    0.9751   -0.6928 H   0  0  0  0  0  0
   -2.6386    3.3158    0.4826 H   0  0  0  0  0  0
   -3.6647    2.2974    1.4186 H   0  0  0  0  0  0
   -1.5825    1.4346    1.8489 H   0  0  0  0  0  0
   -2.2951    0.2815    0.8090 H   0  0  0  0  0  0
   -0.8452    1.9250   -1.0007 H   0  0  0  0  0  0
    0.0557    2.1115    0.4495 H   0  0  0  0  0  0
   -0.1643   -0.6060    0.4242 H   0  0  0  0  0  0
    1.6724   -1.3253    1.2554 H   0  0  0  0  0  0
    2.5037   -1.6682   -0.2267 H   0  0  0  0  0  0
    3.5765    0.3332    1.7584 H   0  0  0  0  0  0
    4.2577   -1.2480    1.4106 H   0  0  0  0  0  0
    4.2805    1.4480   -1.8663 H   0  0  0  0  0  0
    9.8024    0.5729    0.0506 H   0  0  0  0  0  0
    8.7751   -1.5747   -0.5132 H   0  0  0  0  0  0
   -2.4741   -0.1753   -1.2057 H   0  0  0  0  0  0
   -1.7474   -1.9837   -4.9938 H   0  0  0  0  0  0
    0.6662   -2.1288   -4.3745 H   0  0  0  0  0  0
   -7.5633   -0.3111   -3.9470 H   0  0  0  0  0  0
   -6.1331    1.6348   -3.4836 H   0  0  0  0  0  0
   -2.9943    1.8916   -3.9911 H   0  0  0  0  0  0
  1  2  1  0  0  0
  1 41  1  0  0  0
  1 42  1  0  0  0
  1 43  1  0  0  0
  2  3  1  0  0  0
  2 39  1  0  0  0
  2 44  1  0  0  0
  3  4  1  0  0  0
  3 45  1  0  0  0
  3 46  1  0  0  0
  4  5  1  0  0  0
  4 47  1  0  0  0
  4 48  1  0  0  0
  5  6  1  0  0  0
  5 49  1  0  0  0
  5 50  1  0  0  0
  6  7  1  0  0  0
  6 24  1  0  0  0
  6 51  1  0  0  0
  7  8  1  0  0  0
  7 12  1  0  0  0
  8  9  1  0  0  0
  8 52  1  0  0  0
  8 53  1  0  0  0
  9 10  1  0  0  0
  9 54  1  0  0  0
  9 55  1  0  0  0
 10 11  2  0  0  0
 10 14  1  0  0  0
 11 12  1  0  0  0
 11 56  1  0  0  0
 12 13  2  0  0  0
 14 15  2  0  0  0
 14 21  1  0  0  0
 15 16  1  0  0  0
 15 17  1  0  0  0
 17 18  1  0  0  0
 17 19  2  0  0  0
 19 20  1  0  0  0
 19 57  1  0  0  0
 20 21  2  0  0  0
 20 58  1  0  0  0
 21 22  1  0  0  0
 22 23  3  0  0  0
 24 25  1  0  0  0
 24 29  2  0  0  0
 25 26  2  0  0  0
 25 59  1  0  0  0
 26 27  1  0  0  0
 26 30  1  0  0  0
 27 28  2  0  0  0
 27 60  1  0  0  0
 28 29  1  0  0  0
 28 61  1  0  0  0
 30 31  2  0  0  0
 30 37  1  0  0  0
 31 32  1  0  0  0
 31 33  1  0  0  0
 33 34  1  0  0  0
 33 35  2  0  0  0
 35 36  1  0  0  0
 35 62  1  0  0  0
 36 37  2  0  0  0
 36 63  1  0  0  0
 37 38  1  0  0  0
 38 39  1  0  0  0
 38 64  1  0  0  0
 39 40  2  0  0  0
M  END
> <chembl_id>
CHEMBL4112300

> <chembl_pref_name>
None

> <i_m_ct_stereo_status>
1

> <s_m_source_file>
sdf/actives_sanitized.sdf

> <i_m_source_file_index>
20

> <i_lp_mmshare_version>
49012

> <i_f3d_flags>
0

> <s_epik_input>
bjFbY0hdW2NIXWMoW2NIXWMxMiljM2MoW2NIXVtjSF1jKEYpYzNGKVtOSF1DKD1PKVtDQEhdKFtDSDNdKVtDSDJdW0NIMl1bQ0gyXVtDQEBIXTJONFtDSDJdW0NIMl1DKD1bQ0hdQzQ9TyljNWMoRiljKENsKVtjSF1bY0hdYzVDI04=

> <s_epik_cmdline>
J2VwaWtfcHl0aG9uJywgJy1waHQnLCAnMC41JywgJy1waCcsICc3LjUnLCAnLW50JywgJy1tYScsICcyMDAnLCAnLWltYWUnLCAnPGluZmlsZS5tYWU+JywgJy1vbWFlJywgJzxvdXRmaWxlLm1hZT4n

> <r_lp_tautomer_probability>
1

> <r_epik_Ionization_Penalty>
  0.0001

> <r_epik_Ionization_Penalty_Charging>
  0.0000

> <r_epik_Ionization_Penalty_Neutral>
  0.0001

> <r_epik_State_Penalty>
 -0.0000

> <r_epik_Charging_Adjusted_Penalty>
0

> <i_epik_Tot_Q>
0

> <i_epik_Tot_abs_Q>
0

> <s_lp_Force_Field>
OPLS3e

> <r_lp_Energy>
93.698093

> <b_lp_Chiralities_Consistent>
1

> <s_lp_Variant>
sdf/actives_sanitized.sdf:20-1

$$$$
sdf/actives_sanitized.sdf:21
                    3D
 Schrodinger Suite 2020-1.
 39 42  0  0  1  0            999 V2000
   -4.4954    0.4597    0.0202 C   0  0  0  0  0  0
   -4.4499   -0.8813    0.4392 C   0  0  0  0  0  0
   -3.2595   -1.5960    0.5903 C   0  0  0  0  0  0
   -2.0809   -0.9088    0.3003 C   0  0  0  0  0  0
   -2.0771    0.4387   -0.1257 C   0  0  0  0  0  0
   -3.2909    1.1249   -0.2657 C   0  0  0  0  0  0
   -5.7780    1.1552   -0.1166 C   0  0  0  0  0  0
   -6.8632    0.4607   -0.4383 N   0  0  0  0  0  0
   -5.8298    2.4672    0.0825 N   0  3  0  0  0  0
   -0.7484   -1.2477    0.3257 N   0  0  0  0  0  0
   -0.8007    0.8838   -0.3482 N   0  0  0  0  0  0
   -0.0275   -0.1401   -0.0688 C   0  0  0  0  0  0
    1.4396   -0.1263   -0.1594 C   0  0  0  0  0  0
    2.2746    0.9377   -0.5645 C   0  0  0  0  0  0
    1.8843    2.1861   -0.9752 O   0  0  0  0  0  0
    3.5791    0.4538   -0.4904 C   0  0  0  0  0  0
    3.4171   -0.8330   -0.0474 N   0  0  0  0  0  0
    2.1486   -1.1900    0.1534 N   0  0  0  0  0  0
    4.9106    1.0669   -0.7811 C   0  0  0  0  0  0
    5.9899    0.2624   -1.1665 C   0  0  0  0  0  0
    7.2283    0.8356   -1.4431 C   0  0  0  0  0  0
    7.3902    2.2144   -1.3333 C   0  0  0  0  0  0
    6.3248    3.0243   -0.9477 C   0  0  0  0  0  0
    5.0863    2.4508   -0.6715 C   0  0  0  0  0  0
   -5.3731   -1.3932    0.6675 H   0  0  0  0  0  0
   -3.2597   -2.6255    0.9174 H   0  0  0  0  0  0
   -3.2958    2.1526   -0.5979 H   0  0  0  0  0  0
   -7.7511    0.9303   -0.5391 H   0  0  0  0  0  0
   -6.7923   -0.5350   -0.5904 H   0  0  0  0  0  0
   -6.7086    2.9560   -0.0045 H   0  0  0  0  0  0
   -0.3192   -2.1264    0.5778 H   0  0  0  0  0  0
    1.6993    2.1954   -1.9172 H   0  0  0  0  0  0
    4.1794   -1.4733    0.1215 H   0  0  0  0  0  0
    5.8739   -0.8077   -1.2593 H   0  0  0  0  0  0
    8.0591    0.2139   -1.7431 H   0  0  0  0  0  0
    8.3506    2.6594   -1.5485 H   0  0  0  0  0  0
    6.4582    4.0928   -0.8625 H   0  0  0  0  0  0
    4.2698    3.0888   -0.3668 H   0  0  0  0  0  0
   -4.9893    2.9692    0.3291 H   0  0  0  0  0  0
  1  2  2  0  0  0
  1  6  1  0  0  0
  1  7  1  0  0  0
  2  3  1  0  0  0
  2 25  1  0  0  0
  3  4  2  0  0  0
  3 26  1  0  0  0
  4  5  1  0  0  0
  4 10  1  0  0  0
  5  6  2  0  0  0
  5 11  1  0  0  0
  6 27  1  0  0  0
  7  8  1  0  0  0
  7  9  2  0  0  0
  8 28  1  0  0  0
  8 29  1  0  0  0
  9 30  1  0  0  0
  9 39  1  0  0  0
 10 12  1  0  0  0
 10 31  1  0  0  0
 11 12  2  0  0  0
 12 13  1  0  0  0
 13 14  1  0  0  0
 13 18  2  0  0  0
 14 15  1  0  0  0
 14 16  2  0  0  0
 15 32  1  0  0  0
 16 17  1  0  0  0
 16 19  1  0  0  0
 17 18  1  0  0  0
 17 33  1  0  0  0
 19 20  2  0  0  0
 19 24  1  0  0  0
 20 21  1  0  0  0
 20 34  1  0  0  0
 21 22  2  0  0  0
 21 35  1  0  0  0
 22 23  1  0  0  0
 22 36  1  0  0  0
 23 24  2  0  0  0
 23 37  1  0  0  0
 24 38  1  0  0  0
M  CHG  1   9   1
M  END
> <chembl_id>
CHEMBL204997

> <chembl_pref_name>
None

> <s_m_source_file>
sdf/actives_sanitized.sdf

> <i_m_source_file_index>
21

> <i_lp_mmshare_version>
49012

> <i_m_ct_stereo_status>
1

> <i_f3d_flags>
0

> <s_epik_input>
W0hdXE49QyhbTkgyXSlcYyhbY0hdW2NIXTEpW2NIXWMoYzEyKW5jKFtuSF0yKS1jM2MoW09IXSljKFtuSF1uMyktYzRbY0hdW2NIXVtjSF1bY0hdW2NIXTQ=

> <s_epik_cmdline>
J2VwaWtfcHl0aG9uJywgJy1waHQnLCAnMC41JywgJy1waCcsICc3LjUnLCAnLW50JywgJy1tYScsICcyMDAnLCAnLWltYWUnLCAnPGluZmlsZS5tYWU+JywgJy1vbWFlJywgJzxvdXRmaWxlLm1hZT4n

> <r_lp_tautomer_probability>
0.499999999901177

> <r_epik_Ionization_Penalty>
  0.2616

> <r_epik_Ionization_Penalty_Charging>
  0.0010

> <r_epik_Ionization_Penalty_Neutral>
  0.2606

> <r_epik_State_Penalty>
  0.2518

> <r_epik_Charging_Adjusted_Penalty>
0.252805817443595

> <i_epik_Tot_Q>
1

> <i_epik_Tot_abs_Q>
1

> <s_epik_Chemistry_Notes>
This compound has an imine and may undergo hydrolysis.

> <s_lp_Force_Field>
OPLS3e

> <r_lp_Energy>
14.989521

> <b_lp_Chiralities_Consistent>
1

> <s_lp_Variant>
sdf/actives_sanitized.sdf:21-1

$$$$
sdf/actives_sanitized.sdf:21
                    3D
 Schrodinger Suite 2020-1.
 38 41  0  0  1  0            999 V2000
    0.0559    0.0091   -0.0197 C   0  0  0  0  0  0
   -0.6219    1.1709   -0.4276 C   0  0  0  0  0  0
   -2.0097    1.2378   -0.5688 C   0  0  0  0  0  0
   -2.7205    0.0731   -0.2796 C   0  0  0  0  0  0
   -2.0836   -1.1186    0.1341 C   0  0  0  0  0  0
   -0.6883   -1.1492    0.2636 C   0  0  0  0  0  0
    1.5160    0.0042    0.1078 C   0  0  0  0  0  0
    2.1471    1.1302    0.4211 N   0  0  0  0  0  0
    2.1812   -1.1275   -0.0926 N   0  3  0  0  0  0
   -4.0547   -0.2582   -0.2948 N   0  0  0  0  0  0
   -2.9962   -2.1154    0.3573 N   0  0  0  0  0  0
   -4.1647   -1.5762    0.0957 C   0  0  0  0  0  0
   -5.4591   -2.2730    0.1983 C   0  0  0  0  0  0
   -5.7271   -3.5951    0.6206 C   0  0  0  0  0  0
   -4.8811   -4.4584    1.0098 O   0  5  0  0  0  0
   -7.1089   -3.7696    0.5417 C   0  0  0  0  0  0
   -7.5453   -2.5526    0.0851 N   0  0  0  0  0  0
   -6.5784   -1.6571   -0.1220 N   0  0  0  0  0  0
   -8.0262   -4.9154    0.8345 C   0  0  0  0  0  0
   -9.3580   -4.6754    1.1948 C   0  0  0  0  0  0
  -10.2150   -5.7385    1.4672 C   0  0  0  0  0  0
   -9.7421   -7.0454    1.3791 C   0  0  0  0  0  0
   -8.4203   -7.2975    1.0204 C   0  0  0  0  0  0
   -7.5639   -6.2334    0.7484 C   0  0  0  0  0  0
   -0.0528    2.0602   -0.6546 H   0  0  0  0  0  0
   -2.4993    2.1466   -0.8869 H   0  0  0  0  0  0
   -0.1961   -2.0548    0.5865 H   0  0  0  0  0  0
    3.1524    1.1364    0.5111 H   0  0  0  0  0  0
    1.6153    1.9749    0.5729 H   0  0  0  0  0  0
    3.1867   -1.1436   -0.0074 H   0  0  0  0  0  0
   -4.8514    0.3138   -0.5350 H   0  0  0  0  0  0
   -8.5148   -2.3307   -0.0898 H   0  0  0  0  0  0
   -9.7342   -3.6655    1.2703 H   0  0  0  0  0  0
  -11.2411   -5.5508    1.7467 H   0  0  0  0  0  0
  -10.4066   -7.8701    1.5906 H   0  0  0  0  0  0
   -8.0600   -8.3134    0.9526 H   0  0  0  0  0  0
   -6.5432   -6.4433    0.4651 H   0  0  0  0  0  0
    1.6752   -1.9672   -0.3343 H   0  0  0  0  0  0
  1  2  2  0  0  0
  1  6  1  0  0  0
  1  7  1  0  0  0
  2  3  1  0  0  0
  2 25  1  0  0  0
  3  4  2  0  0  0
  3 26  1  0  0  0
  4  5  1  0  0  0
  4 10  1  0  0  0
  5  6  2  0  0  0
  5 11  1  0  0  0
  6 27  1  0  0  0
  7  8  1  0  0  0
  7  9  2  0  0  0
  8 28  1  0  0  0
  8 29  1  0  0  0
  9 30  1  0  0  0
  9 38  1  0  0  0
 10 12  1  0  0  0
 10 31  1  0  0  0
 11 12  2  0  0  0
 12 13  1  0  0  0
 13 14  1  0  0  0
 13 18  2  0  0  0
 14 15  1  0  0  0
 14 16  2  0  0  0
 16 17  1  0  0  0
 16 19  1  0  0  0
 17 18  1  0  0  0
 17 32  1  0  0  0
 19 20  2  0  0  0
 19 24  1  0  0  0
 20 21  1  0  0  0
 20 33  1  0  0  0
 21 22  2  0  0  0
 21 34  1  0  0  0
 22 23  1  0  0  0
 22 35  1  0  0  0
 23 24  2  0  0  0
 23 36  1  0  0  0
 24 37  1  0  0  0
M  CHG  2   9   1  15  -1
M  END
> <chembl_id>
CHEMBL204997

> <chembl_pref_name>
None

> <s_m_source_file>
sdf/actives_sanitized.sdf

> <i_m_source_file_index>
21

> <i_lp_mmshare_version>
49012

> <i_m_ct_stereo_status>
1

> <i_f3d_flags>
0

> <s_epik_input>
W0hdXE49QyhbTkgyXSlcYyhbY0hdW2NIXTEpW2NIXWMoYzEyKW5jKFtuSF0yKS1jM2MoW09IXSljKFtuSF1uMyktYzRbY0hdW2NIXVtjSF1bY0hdW2NIXTQ=

> <s_epik_cmdline>
J2VwaWtfcHl0aG9uJywgJy1waHQnLCAnMC41JywgJy1waCcsICc3LjUnLCAnLW50JywgJy1tYScsICcyMDAnLCAnLWltYWUnLCAnPGluZmlsZS5tYWU+JywgJy1vbWFlJywgJzxvdXRmaWxlLm1hZT4n

> <r_epik_Ionization_Penalty>
  0.6145

> <r_epik_Ionization_Penalty_Charging>
  0.6140

> <r_epik_Ionization_Penalty_Neutral>
  0.0005

> <r_epik_State_Penalty>
  0.6284

> <r_epik_Charging_Adjusted_Penalty>
1.24240286923893

> <i_epik_Tot_Q>
0

> <i_epik_Tot_abs_Q>
2

> <s_epik_Chemistry_Notes>
This compound has an imine and may undergo hydrolysis.

> <s_lp_Force_Field>
OPLS3e

> <r_lp_Energy>
17.790734

> <b_lp_Chiralities_Consistent>
1

> <s_lp_Variant>
sdf/actives_sanitized.sdf:21-2

$$$$
sdf/actives_sanitized.sdf:22
                    3D
 Schrodinger Suite 2020-1.
 67 72  0  0  1  0            999 V2000
   -0.0960   -0.1554    0.0376 C   0  0  0  0  0  0
    5.2559   -1.3919    6.9309 N   0  0  0  0  0  0
    6.5885   -1.1683    7.2200 C   0  0  0  0  0  0
   -0.9637    0.9956   -0.0072 C   0  0  0  0  0  0
    6.9591   -1.5250    8.4208 N   0  0  0  0  0  0
    2.0431   -0.9018    1.1884 C   0  0  0  0  0  0
    1.4304   -0.1423   -0.0088 C   0  0  1  0  0  0
   -0.9467   -1.2493    0.0827 C   0  0  0  0  0  0
   -2.2541   -0.8419    0.0873 N   0  0  0  0  0  0
    4.7220   -1.9574    8.0818 C   0  0  0  0  0  0
   -0.7383    2.3798   -0.0826 C   0  0  0  0  0  0
   -1.5819    4.7205   -0.1879 C   0  0  0  0  0  0
   -1.8168    3.2765   -0.1093 C   0  0  0  0  0  0
    2.6921   -0.1421    2.0986 N   0  0  0  0  0  0
   -2.3113    0.5319    0.0325 C   0  0  0  0  0  0
    5.8180   -2.0217    8.9859 C   0  0  0  0  0  0
    4.6209   -1.1252    5.6978 C   0  0  0  0  0  0
   -2.4482    5.5520    0.3795 N   0  3  0  0  0  0
    1.9652   -0.6752   -1.3643 C   0  0  0  0  0  0
    1.9331   -2.1280    1.2500 O   0  0  0  0  0  0
   -3.1212    2.7666   -0.0601 C   0  0  0  0  0  0
   -3.4019    1.4031    0.0091 C   0  0  0  0  0  0
    4.9042    0.0640    5.0190 C   0  0  0  0  0  0
    3.6676   -2.0104    5.1851 C   0  0  0  0  0  0
    3.3136   -0.5342    3.2983 C   0  0  0  0  0  0
   -0.5074    5.1694   -0.8263 N   0  0  0  0  0  0
    1.5143    0.1598   -2.5586 C   0  0  0  0  0  0
    0.6649    1.7119   -4.7072 C   0  0  0  0  0  0
    4.2507    0.3568    3.8257 C   0  0  0  0  0  0
    3.0165   -1.7191    3.9895 C   0  0  0  0  0  0
    0.2386    2.4895   -5.7832 N   0  0  0  0  0  0
    0.4332   -0.2596   -3.3385 C   0  0  0  0  0  0
    2.1715    1.3555   -2.8592 C   0  0  0  0  0  0
    1.7466    2.1326   -3.9337 C   0  0  0  0  0  0
    0.0074    0.5175   -4.4125 C   0  0  0  0  0  0
    3.4418   -2.3982    8.4472 C   0  0  0  0  0  0
    5.6356   -2.5460   10.2737 C   0  0  0  0  0  0
    3.2945   -2.9151    9.7365 C   0  0  0  0  0  0
    4.3626   -2.9903   10.6296 C   0  0  0  0  0  0
    7.2364   -0.7410    6.4681 H   0  0  0  0  0  0
    1.7652    0.8943    0.0667 H   0  0  0  0  0  0
   -0.7201   -2.3055    0.1127 H   0  0  0  0  0  0
   -3.0263   -1.4924    0.1190 H   0  0  0  0  0  0
    0.2732    2.7555   -0.1137 H   0  0  0  0  0  0
    2.8029    0.8349    1.8705 H   0  0  0  0  0  0
   -2.2962    6.5489    0.3310 H   0  0  0  0  0  0
    3.0572   -0.6919   -1.3605 H   0  0  0  0  0  0
    1.6713   -1.7162   -1.5148 H   0  0  0  0  0  0
   -3.9565    3.4507   -0.0889 H   0  0  0  0  0  0
   -4.4210    1.0453    0.0376 H   0  0  0  0  0  0
    5.6196    0.7703    5.4149 H   0  0  0  0  0  0
    3.4324   -2.9313    5.6982 H   0  0  0  0  0  0
   -0.3357    6.1622   -0.8873 H   0  0  0  0  0  0
    0.1279    4.5143   -1.2578 H   0  0  0  0  0  0
    4.4785    1.2818    3.3150 H   0  0  0  0  0  0
    2.2768   -2.4182    3.6320 H   0  0  0  0  0  0
    0.7835    3.2962   -6.0519 H   0  0  0  0  0  0
   -0.4806    2.1286   -6.3935 H   0  0  0  0  0  0
   -0.0822   -1.1811   -3.1095 H   0  0  0  0  0  0
    3.0071    1.6850   -2.2590 H   0  0  0  0  0  0
    2.2593    3.0565   -4.1597 H   0  0  0  0  0  0
   -0.8311    0.1884   -5.0091 H   0  0  0  0  0  0
    2.5968   -2.3394    7.7777 H   0  0  0  0  0  0
    6.4553   -2.6040   10.9749 H   0  0  0  0  0  0
    2.3225   -3.2643   10.0530 H   0  0  0  0  0  0
    4.1996   -3.3970   11.6170 H   0  0  0  0  0  0
   -3.2540    5.1817    0.8621 H   0  0  0  0  0  0
  1  4  1  0  0  0
  1  7  1  0  0  0
  1  8  2  0  0  0
  2 17  1  0  0  0
  2  3  1  0  0  0
  2 10  1  0  0  0
  3  5  2  0  0  0
  3 40  1  0  0  0
  4 11  2  0  0  0
  4 15  1  0  0  0
  5 16  1  0  0  0
  6  7  1  0  0  0
  6 14  1  0  0  0
  6 20  2  0  0  0
  7 19  1  0  0  0
  7 41  1  0  0  0
  8  9  1  0  0  0
  8 42  1  0  0  0
  9 15  1  0  0  0
  9 43  1  0  0  0
 10 16  2  0  0  0
 10 36  1  0  0  0
 11 13  1  0  0  0
 11 44  1  0  0  0
 12 13  1  0  0  0
 12 18  2  0  0  0
 12 26  1  0  0  0
 13 21  2  0  0  0
 14 25  1  0  0  0
 14 45  1  0  0  0
 15 22  2  0  0  0
 16 37  1  0  0  0
 17 23  2  0  0  0
 17 24  1  0  0  0
 18 46  1  0  0  0
 18 67  1  0  0  0
 19 27  1  0  0  0
 19 47  1  0  0  0
 19 48  1  0  0  0
 21 22  1  0  0  0
 21 49  1  0  0  0
 22 50  1  0  0  0
 23 29  1  0  0  0
 23 51  1  0  0  0
 24 30  2  0  0  0
 24 52  1  0  0  0
 25 29  2  0  0  0
 25 30  1  0  0  0
 26 53  1  0  0  0
 26 54  1  0  0  0
 27 32  2  0  0  0
 27 33  1  0  0  0
 28 35  2  0  0  0
 28 31  1  0  0  0
 28 34  1  0  0  0
 29 55  1  0  0  0
 30 56  1  0  0  0
 31 57  1  0  0  0
 31 58  1  0  0  0
 32 35  1  0  0  0
 32 59  1  0  0  0
 33 34  2  0  0  0
 33 60  1  0  0  0
 34 61  1  0  0  0
 35 62  1  0  0  0
 36 38  2  0  0  0
 36 63  1  0  0  0
 37 39  2  0  0  0
 37 64  1  0  0  0
 38 39  1  0  0  0
 38 65  1  0  0  0
 39 66  1  0  0  0
M  CHG  1  18   1
M  END
> <chembl_id>
CHEMBL186900

> <chembl_pref_name>
None

> <s_m_source_file>
sdf/actives_sanitized.sdf

> <i_m_source_file_index>
22

> <i_lp_mmshare_version>
49012

> <i_m_ct_stereo_status>
1

> <i_f3d_flags>
0

> <s_epik_input>
W0hdXE49QyhbTkgyXSlcYyhbY0hdMSlbY0hdW2NIXWMoYzEyKVtuSF1bY0hdYzJbQ0BIXShbQ0gyXWMzW2NIXVtjSF1jKFtOSDJdKVtjSF1bY0hdMylDKD1PKVtOSF1jKFtjSF1bY0hdNClbY0hdW2NIXWM0LW41W2NIXW5jKGM1NilbY0hdW2NIXVtjSF1bY0hdNg==

> <s_epik_cmdline>
J2VwaWtfcHl0aG9uJywgJy1waHQnLCAnMC41JywgJy1waCcsICc3LjUnLCAnLW50JywgJy1tYScsICcyMDAnLCAnLWltYWUnLCAnPGluZmlsZS5tYWU+JywgJy1vbWFlJywgJzxvdXRmaWxlLm1hZT4n

> <r_epik_Ionization_Penalty>
  0.0123

> <r_epik_Ionization_Penalty_Charging>
  0.0010

> <r_epik_Ionization_Penalty_Neutral>
  0.0114

> <r_epik_State_Penalty>
  0.0078

> <r_epik_Charging_Adjusted_Penalty>
0.00877873498810205

> <i_epik_Tot_Q>
1

> <i_epik_Tot_abs_Q>
1

> <s_epik_Chemistry_Notes>
This compound has an imine and may undergo hydrolysis.

> <s_lp_Force_Field>
OPLS3e

> <r_lp_Energy>
48.434584

> <b_lp_Chiralities_Consistent>
1

> <s_lp_Variant>
sdf/actives_sanitized.sdf:22-1

$$$$
sdf/actives_sanitized.sdf:23
                    3D
 Schrodinger Suite 2020-1.
 55 59  0  0  1  0            999 V2000
    0.2580    0.1722   -0.3378 C   0  0  0  0  0  0
   -0.6192    1.2072   -0.0216 N   0  0  0  0  0  0
   -1.8904    0.8537   -0.3062 N   0  0  0  0  0  0
   -1.8808   -0.4116   -0.6587 C   0  0  0  0  0  0
   -0.5702   -0.8876   -0.6894 C   0  0  0  0  0  0
    7.6611   -2.5035    0.4428 N   0  0  0  0  0  0
    1.7009    0.2241   -0.4042 C   0  0  0  0  0  0
    8.1557   -3.4347    1.3359 C   0  0  0  0  0  0
   -3.1708   -1.1504   -0.9693 C   0  0  0  0  0  0
    9.4416   -3.6495    1.2523 N   0  0  0  0  0  0
   -0.3462    2.5743    0.2760 C   0  0  0  0  0  0
    8.7625   -2.0793   -0.2901 C   0  0  0  0  0  0
    2.1543    4.5824    2.3053 C   0  0  0  0  0  0
    2.2909   -0.9271   -0.0120 N   0  0  0  0  0  0
    9.8519   -2.8181    0.2480 C   0  0  0  0  0  0
    6.3198   -2.0683    0.3569 C   0  0  0  0  0  0
    0.7172    2.9123    1.1254 C   0  0  0  0  0  0
    1.0276    4.2492    1.4290 C   0  0  0  0  0  0
    2.8347    5.7008    2.0840 N   0  3  0  0  0  0
    2.2822    1.2377   -0.7920 O   0  0  0  0  0  0
   -2.9894   -2.0426   -1.9427 F   0  0  0  0  0  0
   -3.6087   -1.8075    0.1039 F   0  0  0  0  0  0
   -4.1414   -0.3241   -1.3640 F   0  0  0  0  0  0
    5.2817   -2.9979    0.4699 C   0  0  0  0  0  0
    6.0267   -0.7247    0.1061 C   0  0  0  0  0  0
    3.6599   -1.2413    0.0931 C   0  0  0  0  0  0
    2.4674    3.7571    3.2972 N   0  0  0  0  0  0
    3.9592   -2.5826    0.3435 C   0  0  0  0  0  0
    4.7043   -0.3091   -0.0180 C   0  0  0  0  0  0
   -1.1339    3.6038   -0.2599 C   0  0  0  0  0  0
    8.9404   -1.1719   -1.3446 C   0  0  0  0  0  0
    0.2239    5.2532    0.8642 C   0  0  0  0  0  0
   -0.8475    4.9343    0.0325 C   0  0  0  0  0  0
   11.1441   -2.6379   -0.2663 C   0  0  0  0  0  0
   10.2392   -1.0167   -1.8340 C   0  0  0  0  0  0
   11.3171   -1.7287   -1.3093 C   0  0  0  0  0  0
   -0.2618   -1.8794   -0.9879 H   0  0  0  0  0  0
    7.4888   -3.9095    2.0412 H   0  0  0  0  0  0
    1.6706   -1.6832    0.2381 H   0  0  0  0  0  0
    1.3095    2.1192    1.5593 H   0  0  0  0  0  0
    3.6167    5.9399    2.6759 H   0  0  0  0  0  0
    5.4910   -4.0433    0.6461 H   0  0  0  0  0  0
    6.8151    0.0092    0.0252 H   0  0  0  0  0  0
    3.2428    3.9725    3.9067 H   0  0  0  0  0  0
    1.9251    2.9176    3.4398 H   0  0  0  0  0  0
    3.1694   -3.3152    0.4339 H   0  0  0  0  0  0
    4.5269    0.7399   -0.1902 H   0  0  0  0  0  0
   -1.9638    3.3844   -0.9164 H   0  0  0  0  0  0
    8.1205   -0.6174   -1.7756 H   0  0  0  0  0  0
    0.4153    6.2971    1.0705 H   0  0  0  0  0  0
   -1.4561    5.7208   -0.3893 H   0  0  0  0  0  0
   11.9853   -3.1876    0.1299 H   0  0  0  0  0  0
   10.4139   -0.3267   -2.6462 H   0  0  0  0  0  0
   12.3037   -1.5758   -1.7219 H   0  0  0  0  0  0
    2.5736    6.3019    1.3160 H   0  0  0  0  0  0
  1  2  1  0  0  0
  1  5  2  0  0  0
  1  7  1  0  0  0
  2  3  1  0  0  0
  2 11  1  0  0  0
  3  4  2  0  0  0
  4  5  1  0  0  0
  4  9  1  0  0  0
  5 37  1  0  0  0
  6 16  1  0  0  0
  6  8  1  0  0  0
  6 12  1  0  0  0
  7 14  1  0  0  0
  7 20  2  0  0  0
  8 10  2  0  0  0
  8 38  1  0  0  0
  9 21  1  0  0  0
  9 22  1  0  0  0
  9 23  1  0  0  0
 10 15  1  0  0  0
 11 17  2  0  0  0
 11 30  1  0  0  0
 12 15  2  0  0  0
 12 31  1  0  0  0
 13 18  1  0  0  0
 13 19  2  0  0  0
 13 27  1  0  0  0
 14 26  1  0  0  0
 14 39  1  0  0  0
 15 34  1  0  0  0
 16 25  2  0  0  0
 16 24  1  0  0  0
 17 18  1  0  0  0
 17 40  1  0  0  0
 18 32  2  0  0  0
 19 41  1  0  0  0
 19 55  1  0  0  0
 24 28  2  0  0  0
 24 42  1  0  0  0
 25 29  1  0  0  0
 25 43  1  0  0  0
 26 28  1  0  0  0
 26 29  2  0  0  0
 27 44  1  0  0  0
 27 45  1  0  0  0
 28 46  1  0  0  0
 29 47  1  0  0  0
 30 33  2  0  0  0
 30 48  1  0  0  0
 31 35  2  0  0  0
 31 49  1  0  0  0
 32 33  1  0  0  0
 32 50  1  0  0  0
 33 51  1  0  0  0
 34 36  2  0  0  0
 34 52  1  0  0  0
 35 36  1  0  0  0
 35 53  1  0  0  0
 36 54  1  0  0  0
M  CHG  1  19   1
M  END
> <chembl_id>
CHEMBL186831

> <chembl_pref_name>
None

> <s_m_source_file>
sdf/actives_sanitized.sdf

> <i_m_source_file_index>
23

> <i_lp_mmshare_version>
49012

> <i_m_ct_stereo_status>
1

> <i_f3d_flags>
0

> <s_epik_input>
W2NIXTFbY0hdW2NIXWMoL0MoPU4vW0hdKVtOSDJdKVtjSF1jMS1uKG5jKFtjSF0yKUMoRikoRilGKWMyQyg9TylbTkhdYyhbY0hdW2NIXTMpW2NIXVtjSF1jMy1uNFtjSF1uYyhjNDUpW2NIXVtjSF1bY0hdW2NIXTU=

> <s_epik_cmdline>
J2VwaWtfcHl0aG9uJywgJy1waHQnLCAnMC41JywgJy1waCcsICc3LjUnLCAnLW50JywgJy1tYScsICcyMDAnLCAnLWltYWUnLCAnPGluZmlsZS5tYWU+JywgJy1vbWFlJywgJzxvdXRmaWxlLm1hZT4n

> <r_lp_tautomer_probability>
1

> <r_epik_Ionization_Penalty>
  0.0112

> <r_epik_Ionization_Penalty_Charging>
  0.0010

> <r_epik_Ionization_Penalty_Neutral>
  0.0102

> <r_epik_State_Penalty>
  0.0078

> <r_epik_Charging_Adjusted_Penalty>
0.00877873498810205

> <i_epik_Tot_Q>
1

> <i_epik_Tot_abs_Q>
1

> <s_epik_Chemistry_Notes>
This compound has an imine and may undergo hydrolysis.

> <s_lp_Force_Field>
OPLS3e

> <r_lp_Energy>
47.67957

> <b_lp_Chiralities_Consistent>
1

> <s_lp_Variant>
sdf/actives_sanitized.sdf:23-1

$$$$
sdf/actives_sanitized.sdf:24
                    3D
 Schrodinger Suite 2020-1.
 66 71  0  0  1  0            999 V2000
    0.0633    0.0102    0.3622 C   0  0  0  0  0  0
    5.2475   -1.4324    7.1127 N   0  0  0  0  0  0
    6.5338   -1.0833    7.4770 C   0  0  0  0  0  0
   -0.7619    1.1557    0.0934 C   0  0  0  0  0  0
    6.9155   -1.5277    8.6447 N   0  0  0  0  0  0
    2.3198   -0.7582    1.2670 C   0  0  0  0  0  0
    1.5812   -0.0077    0.1336 C   0  0  1  0  0  0
   -0.7157   -1.0500    0.8005 C   0  0  0  0  0  0
   -2.4165   -0.7174    0.9453 S   0  0  0  0  0  0
    4.7594   -2.1866    8.1723 C   0  0  0  0  0  0
   -0.4083    2.4293   -0.3952 C   0  0  0  0  0  0
   -0.9969    4.7224   -1.1530 C   0  0  0  0  0  0
   -1.3781    3.4170   -0.6167 C   0  0  0  0  0  0
    2.6925   -0.0064    2.3266 N   0  0  0  0  0  0
   -2.1421    0.9123    0.3658 C   0  0  0  0  0  0
    5.8320   -2.2219    9.1055 C   0  0  0  0  0  0
    4.6177   -1.1101    5.8901 C   0  0  0  0  0  0
   -1.6001    5.8117   -0.6915 N   0  3  0  0  0  0
    1.9339   -0.5724   -1.2718 C   0  0  0  0  0  0
    2.5278   -1.9696    1.1671 O   0  0  0  0  0  0
   -2.7151    3.1334   -0.3243 C   0  0  0  0  0  0
   -3.1171    1.8962    0.1662 C   0  0  0  0  0  0
    4.7693    0.1718    5.3512 C   0  0  0  0  0  0
    3.7982   -2.0442    5.2487 C   0  0  0  0  0  0
    3.3253   -0.4297    3.5085 C   0  0  0  0  0  0
   -0.0592    4.7823   -2.0917 N   0  0  0  0  0  0
    1.4331    0.2964   -2.4208 C   0  0  0  0  0  0
    0.4906    1.9267   -4.4702 C   0  0  0  0  0  0
    4.1213    0.5099    4.1664 C   0  0  0  0  0  0
    3.1546   -1.7076    4.0615 C   0  0  0  0  0  0
    0.0140    2.7487   -5.4903 N   0  0  0  0  0  0
    0.2133    0.0070   -3.0384 C   0  0  0  0  0  0
    2.1855    1.3970   -2.8394 C   0  0  0  0  0  0
    1.7145    2.2123   -3.8653 C   0  0  0  0  0  0
   -0.2605    0.8250   -4.0606 C   0  0  0  0  0  0
    3.5356   -2.8188    8.4360 C   0  0  0  0  0  0
    5.6852   -2.9117   10.3178 C   0  0  0  0  0  0
    3.4222   -3.4959    9.6524 C   0  0  0  0  0  0
    4.4691   -3.5451   10.5719 C   0  0  0  0  0  0
    7.1425   -0.4986    6.8023 H   0  0  0  0  0  0
    1.9634    1.0141    0.1672 H   0  0  0  0  0  0
   -0.3614   -2.0378    1.0584 H   0  0  0  0  0  0
    0.6235    2.6542   -0.6168 H   0  0  0  0  0  0
    2.5751    0.9922    2.2399 H   0  0  0  0  0  0
   -2.3095    5.7274    0.0223 H   0  0  0  0  0  0
    3.0162   -0.6728   -1.3794 H   0  0  0  0  0  0
    1.5483   -1.5875   -1.3888 H   0  0  0  0  0  0
   -3.4685    3.8882   -0.4958 H   0  0  0  0  0  0
   -4.1591    1.7004    0.3748 H   0  0  0  0  0  0
    5.3787    0.9126    5.8486 H   0  0  0  0  0  0
    3.6638   -3.0364    5.6535 H   0  0  0  0  0  0
    0.2129    5.6748   -2.4766 H   0  0  0  0  0  0
    0.3656    3.9301   -2.4287 H   0  0  0  0  0  0
    4.2464    1.5046    3.7626 H   0  0  0  0  0  0
    2.5179   -2.4440    3.5953 H   0  0  0  0  0  0
    0.6263    3.4559   -5.8711 H   0  0  0  0  0  0
   -0.8101    2.4606   -5.9983 H   0  0  0  0  0  0
   -0.3753   -0.8401   -2.7166 H   0  0  0  0  0  0
    3.1289    1.6261   -2.3653 H   0  0  0  0  0  0
    2.3006    3.0634   -4.1818 H   0  0  0  0  0  0
   -1.2092    0.6002   -4.5267 H   0  0  0  0  0  0
    2.7065   -2.7859    7.7452 H   0  0  0  0  0  0
    6.4886   -2.9522   11.0386 H   0  0  0  0  0  0
    2.4938   -3.9949    9.8898 H   0  0  0  0  0  0
    4.3336   -4.0808   11.5000 H   0  0  0  0  0  0
   -1.3491    6.7193   -1.0552 H   0  0  0  0  0  0
  1  4  1  0  0  0
  1  7  1  0  0  0
  1  8  2  0  0  0
  2 17  1  0  0  0
  2  3  1  0  0  0
  2 10  1  0  0  0
  3  5  2  0  0  0
  3 40  1  0  0  0
  4 11  2  0  0  0
  4 15  1  0  0  0
  5 16  1  0  0  0
  6  7  1  0  0  0
  6 14  1  0  0  0
  6 20  2  0  0  0
  7 19  1  0  0  0
  7 41  1  0  0  0
  8  9  1  0  0  0
  8 42  1  0  0  0
  9 15  1  0  0  0
 10 16  2  0  0  0
 10 36  1  0  0  0
 11 13  1  0  0  0
 11 43  1  0  0  0
 12 13  1  0  0  0
 12 18  2  0  0  0
 12 26  1  0  0  0
 13 21  2  0  0  0
 14 25  1  0  0  0
 14 44  1  0  0  0
 15 22  2  0  0  0
 16 37  1  0  0  0
 17 23  2  0  0  0
 17 24  1  0  0  0
 18 45  1  0  0  0
 18 66  1  0  0  0
 19 27  1  0  0  0
 19 46  1  0  0  0
 19 47  1  0  0  0
 21 22  1  0  0  0
 21 48  1  0  0  0
 22 49  1  0  0  0
 23 29  1  0  0  0
 23 50  1  0  0  0
 24 30  2  0  0  0
 24 51  1  0  0  0
 25 29  2  0  0  0
 25 30  1  0  0  0
 26 52  1  0  0  0
 26 53  1  0  0  0
 27 32  2  0  0  0
 27 33  1  0  0  0
 28 35  2  0  0  0
 28 31  1  0  0  0
 28 34  1  0  0  0
 29 54  1  0  0  0
 30 55  1  0  0  0
 31 56  1  0  0  0
 31 57  1  0  0  0
 32 35  1  0  0  0
 32 58  1  0  0  0
 33 34  2  0  0  0
 33 59  1  0  0  0
 34 60  1  0  0  0
 35 61  1  0  0  0
 36 38  2  0  0  0
 36 62  1  0  0  0
 37 39  2  0  0  0
 37 63  1  0  0  0
 38 39  1  0  0  0
 38 64  1  0  0  0
 39 65  1  0  0  0
M  CHG  1  18   1
M  END
> <chembl_id>
CHEMBL360550

> <chembl_pref_name>
None

> <s_m_source_file>
sdf/actives_sanitized.sdf

> <i_m_source_file_index>
24

> <i_lp_mmshare_version>
49012

> <i_m_ct_stereo_status>
1

> <i_f3d_flags>
0

> <s_epik_input>
W0hdXE49QyhbTkgyXSlcYyhbY0hdMSlbY0hdW2NIXWMoYzEyKXNbY0hdYzJbQ0BIXShbQ0gyXWMzW2NIXVtjSF1jKFtOSDJdKVtjSF1bY0hdMylDKD1PKVtOSF1jKFtjSF1bY0hdNClbY0hdW2NIXWM0LW41W2NIXW5jKGM1NilbY0hdW2NIXVtjSF1bY0hdNg==

> <s_epik_cmdline>
J2VwaWtfcHl0aG9uJywgJy1waHQnLCAnMC41JywgJy1waCcsICc3LjUnLCAnLW50JywgJy1tYScsICcyMDAnLCAnLWltYWUnLCAnPGluZmlsZS5tYWU+JywgJy1vbWFlJywgJzxvdXRmaWxlLm1hZT4n

> <r_epik_Ionization_Penalty>
  0.0124

> <r_epik_Ionization_Penalty_Charging>
  0.0010

> <r_epik_Ionization_Penalty_Neutral>
  0.0114

> <r_epik_State_Penalty>
  0.0078

> <r_epik_Charging_Adjusted_Penalty>
0.00877873498810205

> <i_epik_Tot_Q>
1

> <i_epik_Tot_abs_Q>
1

> <s_epik_Chemistry_Notes>
This compound has an imine and may undergo hydrolysis.

> <s_lp_Force_Field>
OPLS3e

> <r_lp_Energy>
50.40583

> <b_lp_Chiralities_Consistent>
1

> <s_lp_Variant>
sdf/actives_sanitized.sdf:24-1

$$$$
sdf/actives_sanitized.sdf:25
                    3D
 Schrodinger Suite 2020-1.
 45 48  0  0  1  0            999 V2000
   -0.0301    0.1901    0.0705 O   0  0  0  0  0  0
   -0.7466    1.4208    0.0376 C   0  0  0  0  0  0
   -2.2357    1.1223    0.0438 C   0  0  0  0  0  0
   -2.9193    0.9781    1.2550 C   0  0  0  0  0  0
   -4.9767    0.5559    0.0560 C   0  0  0  0  0  0
   -4.2973    0.6951   -1.1580 C   0  0  0  0  0  0
   -4.2857    0.6968    1.2601 C   0  0  0  0  0  0
   -2.9296    0.9762   -1.1616 C   0  0  0  0  0  0
    4.3514    2.5620   -0.1116 C   0  0  0  0  0  0
    3.9712    3.6143   -0.9502 C   0  0  0  0  0  0
    4.7093    4.7907   -1.0394 C   0  0  0  0  0  0
    5.5109    2.6898    0.6651 C   0  0  0  0  0  0
    6.2866    3.8602    0.6052 C   0  0  0  0  0  0
    5.8661    4.9075   -0.2596 C   0  0  0  0  0  0
    6.9644    6.2753   -0.1945 S   0  0  0  0  0  0
    7.9765    5.4536    0.9878 C   0  0  0  0  0  0
    7.4834    4.1941    1.2977 C   0  0  0  0  0  0
    9.1226    6.0477    1.4827 C   0  0  0  0  0  0
    9.1407    7.3597    1.6811 N   0  0  0  0  0  0
   10.1707    5.2796    1.7514 N   0  3  0  0  0  0
    3.5340    1.3164   -0.0463 C   0  0  0  0  0  0
    4.1469    0.0567   -0.0194 C   0  0  0  0  0  0
    1.9947   -1.0290    0.0675 C   0  0  0  0  0  0
    1.3509    0.2086    0.0413 C   0  0  0  0  0  0
    3.3847   -1.1081    0.0373 C   0  0  0  0  0  0
    2.1329    1.3756   -0.0132 C   0  0  0  0  0  0
   -5.1363    0.5214   -2.6585 Cl  0  0  0  0  0  0
   -6.3022    0.2835    0.0743 F   0  0  0  0  0  0
   -0.4945    1.9958   -0.8559 H   0  0  0  0  0  0
   -0.4943    2.0393    0.9016 H   0  0  0  0  0  0
   -2.3933    1.0815    2.1931 H   0  0  0  0  0  0
   -4.8085    0.5864    2.1988 H   0  0  0  0  0  0
   -2.4072    1.0792   -2.1021 H   0  0  0  0  0  0
    3.0829    3.5202   -1.5583 H   0  0  0  0  0  0
    4.3950    5.5881   -1.6971 H   0  0  0  0  0  0
    5.8093    1.8843    1.3202 H   0  0  0  0  0  0
    7.9597    3.5267    2.0007 H   0  0  0  0  0  0
    9.9732    7.8038    2.0400 H   0  0  0  0  0  0
    8.3201    7.9088    1.4700 H   0  0  0  0  0  0
   11.0185    5.6925    2.1114 H   0  0  0  0  0  0
    5.2237   -0.0270   -0.0500 H   0  0  0  0  0  0
    1.4114   -1.9374    0.1103 H   0  0  0  0  0  0
    3.8712   -2.0722    0.0553 H   0  0  0  0  0  0
    1.6579    2.3448   -0.0255 H   0  0  0  0  0  0
   10.1191    4.2857    1.5819 H   0  0  0  0  0  0
  1 24  1  0  0  0
  1  2  1  0  0  0
  2  3  1  0  0  0
  2 29  1  0  0  0
  2 30  1  0  0  0
  3  8  2  0  0  0
  3  4  1  0  0  0
  4  7  2  0  0  0
  4 31  1  0  0  0
  5  7  1  0  0  0
  5  6  2  0  0  0
  5 28  1  0  0  0
  6  8  1  0  0  0
  6 27  1  0  0  0
  7 32  1  0  0  0
  8 33  1  0  0  0
  9 10  2  0  0  0
  9 21  1  0  0  0
  9 12  1  0  0  0
 10 11  1  0  0  0
 10 34  1  0  0  0
 11 14  2  0  0  0
 11 35  1  0  0  0
 12 13  2  0  0  0
 12 36  1  0  0  0
 13 17  1  0  0  0
 13 14  1  0  0  0
 14 15  1  0  0  0
 15 16  1  0  0  0
 16 17  2  0  0  0
 16 18  1  0  0  0
 17 37  1  0  0  0
 18 19  1  0  0  0
 18 20  2  0  0  0
 19 38  1  0  0  0
 19 39  1  0  0  0
 20 40  1  0  0  0
 20 45  1  0  0  0
 21 22  2  0  0  0
 21 26  1  0  0  0
 22 25  1  0  0  0
 22 41  1  0  0  0
 23 24  1  0  0  0
 23 25  2  0  0  0
 23 42  1  0  0  0
 24 26  2  0  0  0
 25 43  1  0  0  0
 26 44  1  0  0  0
M  CHG  1  20   1
M  END
> <chembl_id>
CHEMBL596767

> <chembl_pref_name>
None

> <s_m_source_file>
sdf/actives_sanitized.sdf

> <i_m_source_file_index>
25

> <i_lp_mmshare_version>
49012

> <i_m_ct_stereo_status>
1

> <i_f3d_flags>
0

> <s_epik_input>
W2NIXTFjKENsKWMoRilbY0hdW2NIXWMxW0NIMl1PYyhbY0hdMilbY0hdW2NIXVtjSF1jMi1jKFtjSF0zKVtjSF1bY0hdYyhjMzQpc2MoW2NIXTQpL0MoW05IMl0pPU4vW0hd

> <s_epik_cmdline>
J2VwaWtfcHl0aG9uJywgJy1waHQnLCAnMC41JywgJy1waCcsICc3LjUnLCAnLW50JywgJy1tYScsICcyMDAnLCAnLWltYWUnLCAnPGluZmlsZS5tYWU+JywgJy1vbWFlJywgJzxvdXRmaWxlLm1hZT4n

> <r_lp_tautomer_probability>
1

> <r_epik_Ionization_Penalty>
  0.0095

> <r_epik_Ionization_Penalty_Charging>
  0.0095

> <r_epik_Ionization_Penalty_Neutral>
  0.0000

> <r_epik_State_Penalty>
 -0.0000

> <r_epik_Charging_Adjusted_Penalty>
0.00945881282357717

> <i_epik_Tot_Q>
1

> <i_epik_Tot_abs_Q>
1

> <s_epik_Chemistry_Notes>
This compound has an imine and may undergo hydrolysis.

> <s_lp_Force_Field>
OPLS3e

> <r_lp_Energy>
32.369042

> <b_lp_Chiralities_Consistent>
1

> <s_lp_Variant>
sdf/actives_sanitized.sdf:25-1

$$$$
sdf/actives_sanitized.sdf:26
                    3D
 Schrodinger Suite 2020-1.
 56 59  0  0  1  0            999 V2000
    0.1769    2.5125   -0.3056 C   0  0  0  0  0  0
   -0.4878    3.7112   -0.5379 C   0  0  0  0  0  0
   -1.8763    3.7634   -0.6013 C   0  0  0  0  0  0
   -0.5294    1.3139   -0.1248 C   0  0  0  0  0  0
   -1.9383    1.3304   -0.1849 C   0  0  0  0  0  0
   -2.5948    2.5730   -0.4249 C   0  0  0  0  0  0
   -4.3395    2.3847   -0.4641 S   0  0  0  0  0  0
   -4.1989    0.6587   -0.1557 C   0  0  0  0  0  0
   -2.8738    0.2650   -0.0396 C   0  0  0  0  0  0
   -5.3201   -0.1458   -0.0758 C   0  0  0  0  0  0
   -6.4311    0.3406    0.4627 N   0  0  0  0  0  0
   -5.2448   -1.3885   -0.5349 N   0  3  0  0  0  0
    0.0320    0.0702    0.1082 O   0  0  0  0  0  0
    1.4510   -0.0725    0.2490 C   0  0  2  0  0  0
    1.7816   -1.5718    0.1626 C   0  0  0  0  0  0
    1.9459    0.5252    1.5685 C   0  0  0  0  0  0
    1.1664    0.4385    2.7277 C   0  0  0  0  0  0
    1.6258    0.9915    3.9200 C   0  0  0  0  0  0
    2.8641    1.6289    3.9530 C   0  0  0  0  0  0
    3.6477    1.7175    2.8047 C   0  0  0  0  0  0
    3.1885    1.1650    1.6120 C   0  0  0  0  0  0
    1.4938   -2.0566   -1.1445 O   0  0  0  0  0  0
    1.7357   -3.3399   -1.4763 C   0  0  0  0  0  0
    1.3579   -3.5298   -2.8015 N   0  0  0  0  0  0
    2.2019   -4.1838   -0.7073 O   0  0  0  0  0  0
    1.4524   -4.6985   -3.5808 C   0  0  0  0  0  0
    2.4148   -5.6909   -3.3276 C   0  0  0  0  0  0
    2.4909   -6.8254   -4.1336 C   0  0  0  0  0  0
    1.6152   -6.9800   -5.2049 C   0  0  0  0  0  0
    0.6650   -5.9972   -5.4742 C   0  0  0  0  0  0
    0.5771   -4.8525   -4.6738 C   0  0  0  0  0  0
   -0.4786   -3.8040   -5.0079 C   0  0  0  0  0  0
    1.2552    2.5329   -0.2673 H   0  0  0  0  0  0
    0.0850    4.6174   -0.6722 H   0  0  0  0  0  0
   -2.3822    4.7006   -0.7831 H   0  0  0  0  0  0
   -2.5733   -0.7554    0.1486 H   0  0  0  0  0  0
   -7.2577   -0.2356    0.5206 H   0  0  0  0  0  0
   -6.4447    1.2889    0.8091 H   0  0  0  0  0  0
   -6.0526   -1.9920   -0.4888 H   0  0  0  0  0  0
    1.9459    0.4263   -0.5875 H   0  0  0  0  0  0
    1.2100   -2.1295    0.9066 H   0  0  0  0  0  0
    2.8398   -1.7292    0.3792 H   0  0  0  0  0  0
    0.2066   -0.0570    2.7071 H   0  0  0  0  0  0
    1.0254    0.9254    4.8154 H   0  0  0  0  0  0
    3.2207    2.0573    4.8781 H   0  0  0  0  0  0
    4.6073    2.2121    2.8398 H   0  0  0  0  0  0
    3.7996    1.2358    0.7238 H   0  0  0  0  0  0
    0.8948   -2.7504   -3.2452 H   0  0  0  0  0  0
    3.1240   -5.5945   -2.5197 H   0  0  0  0  0  0
    3.2340   -7.5823   -3.9300 H   0  0  0  0  0  0
    1.6756   -7.8588   -5.8299 H   0  0  0  0  0  0
   -0.0037   -6.1302   -6.3124 H   0  0  0  0  0  0
   -1.1005   -4.0952   -5.8555 H   0  0  0  0  0  0
   -0.0033   -2.8510   -5.2428 H   0  0  0  0  0  0
   -1.1332   -3.6416   -4.1508 H   0  0  0  0  0  0
   -4.3814   -1.7215   -0.9382 H   0  0  0  0  0  0
  1  4  2  0  0  0
  1  2  1  0  0  0
  1 33  1  0  0  0
  2  3  2  0  0  0
  2 34  1  0  0  0
  3  6  1  0  0  0
  3 35  1  0  0  0
  4  5  1  0  0  0
  4 13  1  0  0  0
  5  9  1  0  0  0
  5  6  2  0  0  0
  6  7  1  0  0  0
  7  8  1  0  0  0
  8  9  2  0  0  0
  8 10  1  0  0  0
  9 36  1  0  0  0
 10 11  1  0  0  0
 10 12  2  0  0  0
 11 37  1  0  0  0
 11 38  1  0  0  0
 12 39  1  0  0  0
 12 56  1  0  0  0
 13 14  1  0  0  0
 14 16  1  0  0  0
 14 15  1  0  0  0
 14 40  1  0  0  0
 15 22  1  0  0  0
 15 41  1  0  0  0
 15 42  1  0  0  0
 16 17  2  0  0  0
 16 21  1  0  0  0
 17 18  1  0  0  0
 17 43  1  0  0  0
 18 19  2  0  0  0
 18 44  1  0  0  0
 19 20  1  0  0  0
 19 45  1  0  0  0
 20 21  2  0  0  0
 20 46  1  0  0  0
 21 47  1  0  0  0
 22 23  1  0  0  0
 23 24  1  0  0  0
 23 25  2  0  0  0
 24 26  1  0  0  0
 24 48  1  0  0  0
 26 27  2  0  0  0
 26 31  1  0  0  0
 27 28  1  0  0  0
 27 49  1  0  0  0
 28 29  2  0  0  0
 28 50  1  0  0  0
 29 30  1  0  0  0
 29 51  1  0  0  0
 30 31  2  0  0  0
 30 52  1  0  0  0
 31 32  1  0  0  0
 32 53  1  0  0  0
 32 54  1  0  0  0
 32 55  1  0  0  0
M  CHG  1  12   1
M  END
> <chembl_id>
CHEMBL604289

> <chembl_pref_name>
None

> <s_m_source_file>
sdf/actives_sanitized.sdf

> <i_m_source_file_index>
26

> <i_lp_mmshare_version>
49012

> <i_m_ct_stereo_status>
1

> <i_f3d_flags>
0

> <s_epik_input>
W0hdXE49QyhbTkgyXSlcYyhbY0hdMSlzYyhjMTIpW2NIXVtjSF1bY0hdYzJPW0NAQEhdKGMzW2NIXVtjSF1bY0hdW2NIXVtjSF0zKVtDSDJdT0MoPU8pW05IXWM0W2NIXVtjSF1bY0hdW2NIXWM0W0NIM10=

> <s_epik_cmdline>
J2VwaWtfcHl0aG9uJywgJy1waHQnLCAnMC41JywgJy1waCcsICc3LjUnLCAnLW50JywgJy1tYScsICcyMDAnLCAnLWltYWUnLCAnPGluZmlsZS5tYWU+JywgJy1vbWFlJywgJzxvdXRmaWxlLm1hZT4n

> <r_lp_tautomer_probability>
1

> <r_epik_Ionization_Penalty>
  0.0095

> <r_epik_Ionization_Penalty_Charging>
  0.0095

> <r_epik_Ionization_Penalty_Neutral>
  0.0000

> <r_epik_State_Penalty>
 -0.0000

> <r_epik_Charging_Adjusted_Penalty>
0.00945881282357717

> <i_epik_Tot_Q>
1

> <i_epik_Tot_abs_Q>
1

> <s_epik_Chemistry_Notes>
This compound has an ester and may undergo hydrolysis at high or low pH. This compound has an imine and may undergo hydrolysis.

> <s_lp_Force_Field>
OPLS3e

> <r_lp_Energy>
37.761171

> <b_lp_Chiralities_Consistent>
1

> <s_lp_Variant>
sdf/actives_sanitized.sdf:26-1

$$$$
sdf/actives_sanitized.sdf:27
                    3D
 Schrodinger Suite 2020-1.
 71 74  0  0  1  0            999 V2000
   -1.1516    4.0069   -0.5828 C   0  0  0  0  0  0
   -1.7377    5.2285   -0.8934 C   0  0  0  0  0  0
   -3.1133    5.3438   -1.0635 C   0  0  0  0  0  0
   -1.9268    2.8481   -0.4259 C   0  0  0  0  0  0
   -3.3250    2.9287   -0.5936 C   0  0  0  0  0  0
   -3.9001    4.1934   -0.9140 C   0  0  0  0  0  0
   -5.6442    4.0869   -1.0797 S   0  0  0  0  0  0
   -5.6108    2.3638   -0.7292 C   0  0  0  0  0  0
   -4.3206    1.9139   -0.4909 C   0  0  0  0  0  0
   -6.7761    1.6215   -0.6894 C   0  0  0  0  0  0
   -7.7533    1.9022   -1.5422 N   0  0  0  0  0  0
   -6.8759    0.6416    0.1997 N   0  3  0  0  0  0
   -1.4446    1.5865   -0.1213 O   0  0  0  0  0  0
   -0.0534    1.3853    0.1529 C   0  0  2  0  0  0
    0.1908   -0.1344    0.1308 C   0  0  0  0  0  0
    0.3543    2.0213    1.4865 C   0  0  0  0  0  0
   -0.5139    1.9925    2.5835 C   0  0  0  0  0  0
   -0.1361    2.5817    3.7869 C   0  0  0  0  0  0
    1.1086    3.1984    3.8924 C   0  0  0  0  0  0
    1.9801    3.2297    2.8060 C   0  0  0  0  0  0
    1.6029    2.6400    1.6026 C   0  0  0  0  0  0
    1.5721   -0.4264    0.3222 O   0  0  0  0  0  0
    2.0359   -1.6875    0.2234 C   0  0  0  0  0  0
    3.3956   -1.6756    0.5181 N   0  0  0  0  0  0
    1.3466   -2.6600   -0.0908 O   0  0  0  0  0  0
    4.3193   -2.7396    0.5338 C   0  0  0  0  0  0
    3.9196   -4.0874    0.5806 C   0  0  0  0  0  0
    4.8661   -5.1098    0.5899 C   0  0  0  0  0  0
    6.2231   -4.8042    0.5610 C   0  0  0  0  0  0
    6.6347   -3.4742    0.5293 C   0  0  0  0  0  0
    5.6970   -2.4349    0.5168 C   0  0  0  0  0  0
    6.2246   -1.0019    0.5061 C   0  0  0  0  0  0
    6.6492   -0.5428   -0.8966 N   0  3  0  0  0  0
    7.2159    0.8866   -0.9394 C   0  0  0  0  0  0
    7.6149    1.2706   -2.3815 C   0  0  0  0  0  0
    8.6678    0.3223   -2.9918 C   0  0  0  0  0  0
    8.0960    2.7311   -2.4381 C   0  0  0  0  0  0
   -0.0794    3.9779   -0.4648 H   0  0  0  0  0  0
   -1.1130    6.1030   -1.0052 H   0  0  0  0  0  0
   -3.5579    6.2982   -1.3053 H   0  0  0  0  0  0
   -4.0866    0.8865   -0.2538 H   0  0  0  0  0  0
   -8.6116    1.3714   -1.5183 H   0  0  0  0  0  0
   -7.6340    2.6491   -2.2110 H   0  0  0  0  0  0
   -7.7181    0.0870    0.2454 H   0  0  0  0  0  0
    0.5269    1.8214   -0.6632 H   0  0  0  0  0  0
   -0.1422   -0.5400   -0.8263 H   0  0  0  0  0  0
   -0.3981   -0.6214    0.9099 H   0  0  0  0  0  0
   -1.4802    1.5154    2.5052 H   0  0  0  0  0  0
   -0.8048    2.5612    4.6349 H   0  0  0  0  0  0
    1.4007    3.6561    4.8261 H   0  0  0  0  0  0
    2.9430    3.7104    2.8969 H   0  0  0  0  0  0
    2.2808    2.6660    0.7618 H   0  0  0  0  0  0
    3.7918   -0.7663    0.7034 H   0  0  0  0  0  0
    2.8803   -4.3723    0.6220 H   0  0  0  0  0  0
    4.5455   -6.1409    0.6243 H   0  0  0  0  0  0
    6.9561   -5.5976    0.5706 H   0  0  0  0  0  0
    7.6923   -3.2532    0.5179 H   0  0  0  0  0  0
    5.4897   -0.2600    0.8209 H   0  0  0  0  0  0
    7.1144   -0.8934    1.1292 H   0  0  0  0  0  0
    7.3505   -1.1809   -1.2458 H   0  0  0  0  0  0
    6.4173    1.5188   -0.5479 H   0  0  0  0  0  0
    8.0655    0.8875   -0.2541 H   0  0  0  0  0  0
    6.7189    1.2104   -3.0021 H   0  0  0  0  0  0
    9.5863    0.3143   -2.4037 H   0  0  0  0  0  0
    8.9297    0.6262   -4.0063 H   0  0  0  0  0  0
    8.3038   -0.7036   -3.0525 H   0  0  0  0  0  0
    8.9999    2.8774   -1.8454 H   0  0  0  0  0  0
    7.3360    3.4145   -2.0571 H   0  0  0  0  0  0
    8.3197    3.0352   -3.4614 H   0  0  0  0  0  0
   -6.1112    0.4616    0.8337 H   0  0  0  0  0  0
    5.8490   -0.5972   -1.5113 H   0  0  0  0  0  0
  1  4  2  0  0  0
  1  2  1  0  0  0
  1 38  1  0  0  0
  2  3  2  0  0  0
  2 39  1  0  0  0
  3  6  1  0  0  0
  3 40  1  0  0  0
  4 13  1  0  0  0
  4  5  1  0  0  0
  5  9  1  0  0  0
  5  6  2  0  0  0
  6  7  1  0  0  0
  7  8  1  0  0  0
  8  9  2  0  0  0
  8 10  1  0  0  0
  9 41  1  0  0  0
 10 11  1  0  0  0
 10 12  2  0  0  0
 11 42  1  0  0  0
 11 43  1  0  0  0
 12 44  1  0  0  0
 12 70  1  0  0  0
 13 14  1  0  0  0
 14 15  1  0  0  0
 14 16  1  0  0  0
 14 45  1  0  0  0
 15 22  1  0  0  0
 15 46  1  0  0  0
 15 47  1  0  0  0
 16 21  2  0  0  0
 16 17  1  0  0  0
 17 18  2  0  0  0
 17 48  1  0  0  0
 18 19  1  0  0  0
 18 49  1  0  0  0
 19 20  2  0  0  0
 19 50  1  0  0  0
 20 21  1  0  0  0
 20 51  1  0  0  0
 21 52  1  0  0  0
 22 23  1  0  0  0
 23 24  1  0  0  0
 23 25  2  0  0  0
 24 26  1  0  0  0
 24 53  1  0  0  0
 26 27  2  0  0  0
 26 31  1  0  0  0
 27 28  1  0  0  0
 27 54  1  0  0  0
 28 29  2  0  0  0
 28 55  1  0  0  0
 29 30  1  0  0  0
 29 56  1  0  0  0
 30 31  2  0  0  0
 30 57  1  0  0  0
 31 32  1  0  0  0
 32 33  1  0  0  0
 32 58  1  0  0  0
 32 59  1  0  0  0
 33 34  1  0  0  0
 33 60  1  0  0  0
 33 71  1  0  0  0
 34 35  1  0  0  0
 34 61  1  0  0  0
 34 62  1  0  0  0
 35 36  1  0  0  0
 35 37  1  0  0  0
 35 63  1  0  0  0
 36 64  1  0  0  0
 36 65  1  0  0  0
 36 66  1  0  0  0
 37 67  1  0  0  0
 37 68  1  0  0  0
 37 69  1  0  0  0
M  CHG  2  12   1  33   1
M  END
> <chembl_id>
CHEMBL597557

> <chembl_pref_name>
None

> <s_m_source_file>
sdf/actives_sanitized.sdf

> <i_m_source_file_index>
27

> <i_lp_mmshare_version>
49012

> <i_m_ct_stereo_status>
1

> <i_f3d_flags>
0

> <s_epik_input>
W0hdXE49QyhbTkgyXSlcYyhbY0hdMSlzYyhjMTIpW2NIXVtjSF1bY0hdYzJPW0NAQEhdKGMzW2NIXVtjSF1bY0hdW2NIXVtjSF0zKVtDSDJdT0MoPU8pW05IXWM0W2NIXVtjSF1bY0hdW2NIXWM0W0NIMl1bTkhdW0NIMl1bQ0hdKFtDSDNdKVtDSDNd

> <s_epik_cmdline>
J2VwaWtfcHl0aG9uJywgJy1waHQnLCAnMC41JywgJy1waCcsICc3LjUnLCAnLW50JywgJy1tYScsICcyMDAnLCAnLWltYWUnLCAnPGluZmlsZS5tYWU+JywgJy1vbWFlJywgJzxvdXRmaWxlLm1hZT4n

> <r_lp_tautomer_probability>
1

> <r_epik_Ionization_Penalty>
  0.0328

> <r_epik_Ionization_Penalty_Charging>
  0.0328

> <r_epik_Ionization_Penalty_Neutral>
  0.0000

> <r_epik_State_Penalty>
 -0.0000

> <r_epik_Charging_Adjusted_Penalty>
0.0328037661480612

> <i_epik_Tot_Q>
2

> <i_epik_Tot_abs_Q>
2

> <s_epik_Chemistry_Notes>
This compound has an ester and may undergo hydrolysis at high or low pH. This compound has an imine and may undergo hydrolysis.

> <s_lp_Force_Field>
OPLS3e

> <r_lp_Energy>
52.379454

> <b_lp_Chiralities_Consistent>
1

> <s_lp_Variant>
sdf/actives_sanitized.sdf:27-1

$$$$
sdf/actives_sanitized.sdf:28
                    3D
 Schrodinger Suite 2020-1.
 71 75  0  0  1  0            999 V2000
   -2.9458   -0.3331    0.3189 C   0  0  0  0  0  0
   -4.3039   -0.5321    0.5406 C   0  0  0  0  0  0
   -4.7582   -1.1903    1.6789 C   0  0  0  0  0  0
   -1.9866   -0.7854    1.2374 C   0  0  0  0  0  0
   -2.4124   -1.4601    2.4001 C   0  0  0  0  0  0
   -3.8103   -1.6524    2.6024 C   0  0  0  0  0  0
   -4.1339   -2.5103    4.0993 S   0  0  0  0  0  0
   -2.4149   -2.6075    4.4600 C   0  0  0  0  0  0
   -1.6487   -2.0142    3.4680 C   0  0  0  0  0  0
   -1.9592   -3.2385    5.6021 C   0  0  0  0  0  0
   -2.6691   -3.1493    6.7195 N   0  0  0  0  0  0
   -0.8152   -3.9086    5.5443 N   0  3  0  0  0  0
   -0.6152   -0.6377    1.1174 O   0  0  0  0  0  0
   -0.0515    0.0654    0.0035 C   0  0  2  0  0  0
    1.4581   -0.2435   -0.0264 C   0  0  0  0  0  0
   -0.3465    1.5703    0.0562 C   0  0  0  0  0  0
   -0.5061    2.2291    1.2812 C   0  0  0  0  0  0
   -0.7773    3.5941    1.3097 C   0  0  0  0  0  0
   -0.8876    4.3006    0.1142 C   0  0  0  0  0  0
   -0.7283    3.6540   -1.1094 C   0  0  0  0  0  0
   -0.4577    2.2885   -1.1381 C   0  0  0  0  0  0
    2.1409    0.3980    1.0477 O   0  0  0  0  0  0
    3.4766    0.2944    1.1809 C   0  0  0  0  0  0
    3.8771    1.1231    2.2246 N   0  0  0  0  0  0
    4.1927   -0.4241    0.4800 O   0  0  0  0  0  0
    5.1759    1.3889    2.7042 C   0  0  0  0  0  0
    6.3207    1.1705    1.9178 C   0  0  0  0  0  0
    7.5878    1.4740    2.4084 C   0  0  0  0  0  0
    7.7295    2.0110    3.6830 C   0  0  0  0  0  0
    6.6036    2.2444    4.4682 C   0  0  0  0  0  0
    5.3158    1.9302    4.0009 C   0  0  0  0  0  0
    4.0661    2.2181    4.8574 C   0  0  0  0  0  0
    4.3062    2.5782    6.2621 N   0  0  0  0  0  0
    3.0891    3.1613    6.8425 C   0  0  0  0  0  0
    4.6868    1.3944    7.0498 C   0  0  0  0  0  0
    3.3590    3.6651    8.2776 C   0  0  0  0  0  0
    5.0527    1.8006    8.4939 C   0  0  0  0  0  0
    3.8363    2.4850    9.1431 N   0  3  0  0  0  0
   -2.6521    0.1841   -0.5817 H   0  0  0  0  0  0
   -5.0182   -0.1688   -0.1840 H   0  0  0  0  0  0
   -5.8160   -1.3401    1.8401 H   0  0  0  0  0  0
   -0.5698   -1.9711    3.4989 H   0  0  0  0  0  0
   -2.3502   -3.6116    7.5581 H   0  0  0  0  0  0
   -3.5356   -2.6309    6.7211 H   0  0  0  0  0  0
   -0.4696   -4.3877    6.3629 H   0  0  0  0  0  0
   -0.4787   -0.3562   -0.9086 H   0  0  0  0  0  0
    1.8772    0.1028   -0.9729 H   0  0  0  0  0  0
    1.6188   -1.3220    0.0188 H   0  0  0  0  0  0
   -0.4173    1.6871    2.2115 H   0  0  0  0  0  0
   -0.9002    4.1028    2.2544 H   0  0  0  0  0  0
   -1.0970    5.3599    0.1362 H   0  0  0  0  0  0
   -0.8132    4.2094   -2.0319 H   0  0  0  0  0  0
   -0.3339    1.7909   -2.0890 H   0  0  0  0  0  0
    3.1322    1.5705    2.7380 H   0  0  0  0  0  0
    6.2539    0.7849    0.9127 H   0  0  0  0  0  0
    8.4597    1.3041    1.7940 H   0  0  0  0  0  0
    8.7116    2.2574    4.0591 H   0  0  0  0  0  0
    6.7495    2.6821    5.4444 H   0  0  0  0  0  0
    3.5207    3.0153    4.3483 H   0  0  0  0  0  0
    3.4067    1.3482    4.8245 H   0  0  0  0  0  0
    2.7623    4.0054    6.2325 H   0  0  0  0  0  0
    2.2705    2.4382    6.8368 H   0  0  0  0  0  0
    3.8796    0.6587    7.0559 H   0  0  0  0  0  0
    5.5457    0.8988    6.5961 H   0  0  0  0  0  0
    4.1428    4.4233    8.3244 H   0  0  0  0  0  0
    2.4600    4.0438    8.7645 H   0  0  0  0  0  0
    5.2795    0.9414    9.1256 H   0  0  0  0  0  0
    5.8777    2.5138    8.5422 H   0  0  0  0  0  0
    4.0756    2.8104   10.0691 H   0  0  0  0  0  0
   -0.3055   -3.9533    4.6739 H   0  0  0  0  0  0
    3.0865    1.8152    9.2407 H   0  0  0  0  0  0
  1  4  2  0  0  0
  1  2  1  0  0  0
  1 39  1  0  0  0
  2  3  2  0  0  0
  2 40  1  0  0  0
  3  6  1  0  0  0
  3 41  1  0  0  0
  4 13  1  0  0  0
  4  5  1  0  0  0
  5  9  1  0  0  0
  5  6  2  0  0  0
  6  7  1  0  0  0
  7  8  1  0  0  0
  8  9  2  0  0  0
  8 10  1  0  0  0
  9 42  1  0  0  0
 10 11  1  0  0  0
 10 12  2  0  0  0
 11 43  1  0  0  0
 11 44  1  0  0  0
 12 45  1  0  0  0
 12 70  1  0  0  0
 13 14  1  0  0  0
 14 15  1  0  0  0
 14 16  1  0  0  0
 14 46  1  0  0  0
 15 22  1  0  0  0
 15 47  1  0  0  0
 15 48  1  0  0  0
 16 21  1  0  0  0
 16 17  2  0  0  0
 17 18  1  0  0  0
 17 49  1  0  0  0
 18 19  2  0  0  0
 18 50  1  0  0  0
 19 20  1  0  0  0
 19 51  1  0  0  0
 20 21  2  0  0  0
 20 52  1  0  0  0
 21 53  1  0  0  0
 22 23  1  0  0  0
 23 24  1  0  0  0
 23 25  2  0  0  0
 24 26  1  0  0  0
 24 54  1  0  0  0
 26 27  2  0  0  0
 26 31  1  0  0  0
 27 28  1  0  0  0
 27 55  1  0  0  0
 28 29  2  0  0  0
 28 56  1  0  0  0
 29 30  1  0  0  0
 29 57  1  0  0  0
 30 31  2  0  0  0
 30 58  1  0  0  0
 31 32  1  0  0  0
 32 33  1  0  0  0
 32 59  1  0  0  0
 32 60  1  0  0  0
 33 34  1  0  0  0
 33 35  1  0  0  0
 34 36  1  0  0  0
 34 61  1  0  0  0
 34 62  1  0  0  0
 35 37  1  0  0  0
 35 63  1  0  0  0
 35 64  1  0  0  0
 36 38  1  0  0  0
 36 65  1  0  0  0
 36 66  1  0  0  0
 37 38  1  0  0  0
 37 67  1  0  0  0
 37 68  1  0  0  0
 38 69  1  0  0  0
 38 71  1  0  0  0
M  CHG  2  12   1  38   1
M  END
> <chembl_id>
CHEMBL597759

> <chembl_pref_name>
None

> <s_m_source_file>
sdf/actives_sanitized.sdf

> <i_m_source_file_index>
28

> <i_lp_mmshare_version>
49012

> <i_m_ct_stereo_status>
1

> <i_f3d_flags>
0

> <s_epik_input>
W0hdXE49QyhbTkgyXSlcYyhbY0hdMSlzYyhjMTIpW2NIXVtjSF1bY0hdYzJPW0NAQEhdKGMzW2NIXVtjSF1bY0hdW2NIXVtjSF0zKVtDSDJdT0MoPU8pW05IXWM0W2NIXVtjSF1bY0hdW2NIXWM0W0NIMl1ONVtDSDJdW0NIMl1bTkhdW0NIMl1bQ0gyXTU=

> <s_epik_cmdline>
J2VwaWtfcHl0aG9uJywgJy1waHQnLCAnMC41JywgJy1waCcsICc3LjUnLCAnLW50JywgJy1tYScsICcyMDAnLCAnLWltYWUnLCAnPGluZmlsZS5tYWU+JywgJy1vbWFlJywgJzxvdXRmaWxlLm1hZT4n

> <r_lp_tautomer_probability>
1

> <r_epik_Ionization_Penalty>
  0.0426

> <r_epik_Ionization_Penalty_Charging>
  0.0241

> <r_epik_Ionization_Penalty_Neutral>
  0.0185

> <r_epik_State_Penalty>
 -0.0000

> <r_epik_Charging_Adjusted_Penalty>
0.0241418347333224

> <i_epik_Tot_Q>
2

> <i_epik_Tot_abs_Q>
2

> <s_epik_Chemistry_Notes>
This compound has an ester and may undergo hydrolysis at high or low pH. This compound has an imine and may undergo hydrolysis.

> <s_lp_Force_Field>
OPLS3e

> <r_lp_Energy>
58.78128

> <b_lp_Chiralities_Consistent>
1

> <s_lp_Variant>
sdf/actives_sanitized.sdf:28-1

$$$$
sdf/actives_sanitized.sdf:29
                    3D
 Schrodinger Suite 2020-1.
 65 68  0  0  1  0            999 V2000
   -2.5630   -1.2349    0.0925 C   0  0  0  0  0  0
   -3.8495   -1.7573    0.1669 C   0  0  0  0  0  0
   -4.3252   -2.3243    1.3450 C   0  0  0  0  0  0
   -1.7028   -1.2585    1.2004 C   0  0  0  0  0  0
   -2.1522   -1.8310    2.4082 C   0  0  0  0  0  0
   -3.4749   -2.3598    2.4591 C   0  0  0  0  0  0
   -3.8458   -3.0198    4.0429 S   0  0  0  0  0  0
   -2.2416   -2.6049    4.6342 C   0  0  0  0  0  0
   -1.4808   -1.9814    3.6562 C   0  0  0  0  0  0
   -1.8664   -2.8793    5.9365 C   0  0  0  0  0  0
   -2.3168   -3.9812    6.5231 N   0  0  0  0  0  0
   -1.0564   -2.0309    6.5573 N   0  3  0  0  0  0
   -0.4092   -0.7673    1.2320 O   0  0  0  0  0  0
    0.1399   -0.0882    0.0959 C   0  0  2  0  0  0
    1.6506    0.0673    0.3350 C   0  0  0  0  0  0
   -0.5250    1.2739   -0.1204 C   0  0  0  0  0  0
   -0.9094    2.0615    0.9709 C   0  0  0  0  0  0
   -1.5193    3.2952    0.7602 C   0  0  0  0  0  0
   -1.7432    3.7410   -0.5404 C   0  0  0  0  0  0
   -1.3615    2.9649   -1.6325 C   0  0  0  0  0  0
   -0.7516    1.7311   -1.4223 C   0  0  0  0  0  0
    2.2835   -1.2077    0.3018 O   0  0  0  0  0  0
    3.6093   -1.3262    0.5104 C   0  0  0  0  0  0
    3.9573   -2.6663    0.3763 N   0  0  0  0  0  0
    4.3600   -0.3866    0.7827 O   0  0  0  0  0  0
    5.2300   -3.2593    0.4790 C   0  0  0  0  0  0
   -4.6503   -1.7136   -0.9216 F   0  0  0  0  0  0
    5.3194   -4.6301    0.8004 C   0  0  0  0  0  0
    6.5778   -5.2376    0.8827 C   0  0  0  0  0  0
    7.7387   -4.5078    0.6378 C   0  0  0  0  0  0
    7.6537   -3.1590    0.3053 C   0  0  0  0  0  0
    6.4092   -2.5381    0.2219 C   0  0  0  0  0  0
    4.0904   -5.4917    1.0976 C   0  0  0  0  0  0
    3.7180   -6.4698   -0.0389 N   0  3  0  0  0  0
    2.6335   -7.4714    0.4037 C   0  0  0  0  0  0
    3.3061   -5.7461   -1.3369 C   0  0  0  0  0  0
   -2.2456   -0.8073   -0.8463 H   0  0  0  0  0  0
   -5.3269   -2.7266    1.3928 H   0  0  0  0  0  0
   -0.4681   -1.6433    3.8203 H   0  0  0  0  0  0
   -2.0569   -4.1871    7.4766 H   0  0  0  0  0  0
   -2.9310   -4.6025    6.0167 H   0  0  0  0  0  0
   -0.7683   -2.2133    7.5076 H   0  0  0  0  0  0
    0.0016   -0.7087   -0.7926 H   0  0  0  0  0  0
    1.8319    0.5581    1.2931 H   0  0  0  0  0  0
    2.0846    0.6998   -0.4416 H   0  0  0  0  0  0
   -0.7361    1.7207    1.9814 H   0  0  0  0  0  0
   -1.8168    3.9041    1.6011 H   0  0  0  0  0  0
   -2.2163    4.6982   -0.7039 H   0  0  0  0  0  0
   -1.5375    3.3186   -2.6380 H   0  0  0  0  0  0
   -0.4576    1.1325   -2.2723 H   0  0  0  0  0  0
    3.1896   -3.3088    0.2497 H   0  0  0  0  0  0
    6.6601   -6.2844    1.1382 H   0  0  0  0  0  0
    8.7040   -4.9885    0.7027 H   0  0  0  0  0  0
    8.5528   -2.5940    0.1069 H   0  0  0  0  0  0
    6.3838   -1.4966   -0.0600 H   0  0  0  0  0  0
    4.2680   -6.1166    1.9750 H   0  0  0  0  0  0
    3.1812   -4.9157    1.2750 H   0  0  0  0  0  0
    1.7296   -6.9056    0.6346 H   0  0  0  0  0  0
    3.0145   -7.9975    1.2801 H   0  0  0  0  0  0
    2.4743   -8.1638   -0.4239 H   0  0  0  0  0  0
    2.4238   -5.1425   -1.1176 H   0  0  0  0  0  0
    3.0937   -6.5134   -2.0827 H   0  0  0  0  0  0
    4.1483   -5.1286   -1.6512 H   0  0  0  0  0  0
   -0.7412   -1.1988    6.0801 H   0  0  0  0  0  0
    4.5485   -7.0066   -0.2485 H   0  0  0  0  0  0
  1  4  2  0  0  0
  1  2  1  0  0  0
  1 37  1  0  0  0
  2  3  2  0  0  0
  2 27  1  0  0  0
  3  6  1  0  0  0
  3 38  1  0  0  0
  4 13  1  0  0  0
  4  5  1  0  0  0
  5  9  1  0  0  0
  5  6  2  0  0  0
  6  7  1  0  0  0
  7  8  1  0  0  0
  8  9  2  0  0  0
  8 10  1  0  0  0
  9 39  1  0  0  0
 10 11  1  0  0  0
 10 12  2  0  0  0
 11 40  1  0  0  0
 11 41  1  0  0  0
 12 42  1  0  0  0
 12 64  1  0  0  0
 13 14  1  0  0  0
 14 15  1  0  0  0
 14 16  1  0  0  0
 14 43  1  0  0  0
 15 22  1  0  0  0
 15 44  1  0  0  0
 15 45  1  0  0  0
 16 21  2  0  0  0
 16 17  1  0  0  0
 17 18  2  0  0  0
 17 46  1  0  0  0
 18 19  1  0  0  0
 18 47  1  0  0  0
 19 20  2  0  0  0
 19 48  1  0  0  0
 20 21  1  0  0  0
 20 49  1  0  0  0
 21 50  1  0  0  0
 22 23  1  0  0  0
 23 24  1  0  0  0
 23 25  2  0  0  0
 24 26  1  0  0  0
 24 51  1  0  0  0
 26 28  2  0  0  0
 26 32  1  0  0  0
 28 29  1  0  0  0
 28 33  1  0  0  0
 29 30  2  0  0  0
 29 52  1  0  0  0
 30 31  1  0  0  0
 30 53  1  0  0  0
 31 32  2  0  0  0
 31 54  1  0  0  0
 32 55  1  0  0  0
 33 34  1  0  0  0
 33 56  1  0  0  0
 33 57  1  0  0  0
 34 35  1  0  0  0
 34 36  1  0  0  0
 34 65  1  0  0  0
 35 58  1  0  0  0
 35 59  1  0  0  0
 35 60  1  0  0  0
 36 61  1  0  0  0
 36 62  1  0  0  0
 36 63  1  0  0  0
M  CHG  2  12   1  34   1
M  END
> <chembl_id>
CHEMBL603242

> <chembl_pref_name>
None

> <s_m_source_file>
sdf/actives_sanitized.sdf

> <i_m_source_file_index>
29

> <i_lp_mmshare_version>
49012

> <i_m_ct_stereo_status>
1

> <i_f3d_flags>
0

> <s_epik_input>
W0hdXE49QyhbTkgyXSlcYyhbY0hdMSlzYyhjMTIpW2NIXWMoRilbY0hdYzJPW0NAQEhdKGMzW2NIXVtjSF1bY0hdW2NIXVtjSF0zKVtDSDJdT0MoPU8pW05IXWM0YyhbQ0gyXU4oW0NIM10pW0NIM10pW2NIXVtjSF1bY0hdW2NIXTQ=

> <s_epik_cmdline>
J2VwaWtfcHl0aG9uJywgJy1waHQnLCAnMC41JywgJy1waCcsICc3LjUnLCAnLW50JywgJy1tYScsICcyMDAnLCAnLWltYWUnLCAnPGluZmlsZS5tYWU+JywgJy1vbWFlJywgJzxvdXRmaWxlLm1hZT4n

> <r_lp_tautomer_probability>
1

> <r_epik_Ionization_Penalty>
  0.1382

> <r_epik_Ionization_Penalty_Charging>
  0.1382

> <r_epik_Ionization_Penalty_Neutral>
  0.0000

> <r_epik_State_Penalty>
 -0.0000

> <r_epik_Charging_Adjusted_Penalty>
0.138159932217636

> <i_epik_Tot_Q>
2

> <i_epik_Tot_abs_Q>
2

> <s_epik_Chemistry_Notes>
This compound has an ester and may undergo hydrolysis at high or low pH. This compound has an imine and may undergo hydrolysis.

> <s_lp_Force_Field>
OPLS3e

> <r_lp_Energy>
50.981547

> <b_lp_Chiralities_Consistent>
1

> <s_lp_Variant>
sdf/actives_sanitized.sdf:29-1

$$$$
sdf/actives_sanitized.sdf:30
                    3D
 Schrodinger Suite 2020-1.
 61 66  0  0  1  0            999 V2000
   -0.6541    1.6479   -0.1522 C   0  0  0  0  0  0
   -1.7289    2.1343    0.6116 C   0  0  0  0  0  0
   -2.2306    3.4157    0.3998 C   0  0  0  0  0  0
   -1.6754    4.2223   -0.5883 C   0  0  0  0  0  0
   -0.6251    3.7552   -1.3713 C   0  0  0  0  0  0
   -0.1245    2.4743   -1.1585 C   0  0  0  0  0  0
   -0.0347   -5.4520   -3.2839 C   0  0  0  0  0  0
    0.1494   -5.4402   -1.8982 C   0  0  0  0  0  0
   -0.4685   -3.0434   -3.3271 C   0  0  0  0  0  0
   -0.3362   -4.2739   -3.9751 C   0  0  0  0  0  0
   -0.2824   -3.0402   -1.9406 C   0  0  0  0  0  0
    0.0190   -4.2207   -1.2184 C   0  0  0  0  0  0
    0.1406   -3.9627    0.1194 N   0  0  0  0  0  0
   -0.3247   -2.0532   -0.9763 N   0  0  0  0  0  0
   -0.0952   -2.6799    0.2401 C   0  0  0  0  0  0
   -0.0154   -1.9049    1.5503 C   0  0  0  0  0  0
   -0.5944   -0.4845    1.3468 C   0  0  0  0  0  0
   -0.0972    0.2045    0.0305 C   0  0  1  0  0  0
   -0.6630   -0.6361   -1.1565 C   0  0  0  0  0  0
    1.3819    0.2446   -0.0351 N   0  0  0  0  0  0
    2.2219    0.8827    0.8075 C   0  0  0  0  0  0
    3.6917    0.6278    0.5671 C   0  0  0  0  0  0
    1.8434    1.6297    1.7109 O   0  0  0  0  0  0
    4.1256   -0.6744    0.2727 C   0  0  0  0  0  0
    5.4715   -0.9491    0.0432 C   0  0  0  0  0  0
    6.4237    0.0764    0.0971 C   0  0  0  0  0  0
    5.9969    1.3794    0.3799 C   0  0  0  0  0  0
    4.6488    1.6636    0.6092 C   0  0  0  0  0  0
    4.2307    3.3199    0.9114 Cl  0  0  0  0  0  0
    7.7973   -0.1904   -0.1320 N   0  0  0  0  0  0
    8.8195    0.6732   -0.4394 C   0  0  0  0  0  0
    9.9506    0.0301   -0.5674 N   0  0  0  0  0  0
    9.5880   -1.2229   -0.3421 C   0  0  0  0  0  0
    8.3155   -1.4269   -0.0716 N   0  0  0  0  0  0
   10.5890   -2.3565   -0.3642 C   0  0  0  0  0  0
    0.1076   -6.7605   -4.0405 C   0  0  0  0  0  0
   -2.1922    1.5398    1.3828 H   0  0  0  0  0  0
   -3.0512    3.7816    0.9991 H   0  0  0  0  0  0
   -2.0663    5.2157   -0.7521 H   0  0  0  0  0  0
   -0.2022    4.3816   -2.1428 H   0  0  0  0  0  0
    0.6839    2.1243   -1.7838 H   0  0  0  0  0  0
    0.3822   -6.3497   -1.3636 H   0  0  0  0  0  0
   -0.7011   -2.1441   -3.8781 H   0  0  0  0  0  0
   -0.4733   -4.3074   -5.0465 H   0  0  0  0  0  0
   -0.5439   -2.4230    2.3513 H   0  0  0  0  0  0
    1.0242   -1.8345    1.8725 H   0  0  0  0  0  0
   -1.6807   -0.5875    1.3186 H   0  0  0  0  0  0
   -0.3798    0.1318    2.2211 H   0  0  0  0  0  0
   -0.2721   -0.2915   -2.1157 H   0  0  0  0  0  0
   -1.7501   -0.5551   -1.2129 H   0  0  0  0  0  0
    1.7945   -0.5140   -0.5577 H   0  0  0  0  0  0
    3.4220   -1.4944    0.2294 H   0  0  0  0  0  0
    5.7619   -1.9663   -0.1776 H   0  0  0  0  0  0
    6.7084    2.1905    0.4270 H   0  0  0  0  0  0
    8.6532    1.7341   -0.5529 H   0  0  0  0  0  0
   10.2162   -3.2809    0.0791 H   0  0  0  0  0  0
   11.4691   -2.0864    0.2206 H   0  0  0  0  0  0
   10.9788   -2.5428   -1.3655 H   0  0  0  0  0  0
    0.1683   -6.6069   -5.1186 H   0  0  0  0  0  0
   -0.7329   -7.4197   -3.8214 H   0  0  0  0  0  0
    1.0193   -7.2745   -3.7338 H   0  0  0  0  0  0
  1  2  2  0  0  0
  1  6  1  0  0  0
  1 18  1  0  0  0
  2  3  1  0  0  0
  2 37  1  0  0  0
  3  4  2  0  0  0
  3 38  1  0  0  0
  4  5  1  0  0  0
  4 39  1  0  0  0
  5  6  2  0  0  0
  5 40  1  0  0  0
  6 41  1  0  0  0
  7  8  2  0  0  0
  7 10  1  0  0  0
  7 36  1  0  0  0
  8 12  1  0  0  0
  8 42  1  0  0  0
  9 11  1  0  0  0
  9 10  2  0  0  0
  9 43  1  0  0  0
 10 44  1  0  0  0
 11 12  2  0  0  0
 11 14  1  0  0  0
 12 13  1  0  0  0
 13 15  2  0  0  0
 14 15  1  0  0  0
 14 19  1  0  0  0
 15 16  1  0  0  0
 16 17  1  0  0  0
 16 45  1  0  0  0
 16 46  1  0  0  0
 17 18  1  0  0  0
 17 47  1  0  0  0
 17 48  1  0  0  0
 18 19  1  0  0  0
 18 20  1  0  0  0
 19 49  1  0  0  0
 19 50  1  0  0  0
 20 21  1  0  0  0
 20 51  1  0  0  0
 21 22  1  0  0  0
 21 23  2  0  0  0
 22 24  2  0  0  0
 22 28  1  0  0  0
 24 25  1  0  0  0
 24 52  1  0  0  0
 25 26  2  0  0  0
 25 53  1  0  0  0
 26 27  1  0  0  0
 26 30  1  0  0  0
 27 28  2  0  0  0
 27 54  1  0  0  0
 28 29  1  0  0  0
 30 31  1  0  0  0
 30 34  1  0  0  0
 31 32  2  0  0  0
 31 55  1  0  0  0
 32 33  1  0  0  0
 33 34  2  0  0  0
 33 35  1  0  0  0
 35 56  1  0  0  0
 35 57  1  0  0  0
 35 58  1  0  0  0
 36 59  1  0  0  0
 36 60  1  0  0  0
 36 61  1  0  0  0
M  END
> <chembl_id>
CHEMBL3628832

> <chembl_pref_name>
None

> <i_m_ct_stereo_status>
1

> <s_m_source_file>
sdf/actives_sanitized.sdf

> <i_m_source_file_index>
30

> <i_lp_mmshare_version>
49012

> <i_f3d_flags>
0

> <s_epik_input>
W2NIXTFbY0hdYyhbQ0gzXSlbY0hdYyhjMTIpbmMzbjJbQ0gyXVtDQF0oW0NIMl1bQ0gyXTMpKGM0W2NIXVtjSF1bY0hdW2NIXVtjSF00KVtOSF1DKD1PKWM1W2NIXVtjSF1jKFtjSF1jNUNsKS1uNltjSF1uYyhuNilbQ0gzXQ==

> <s_epik_cmdline>
J2VwaWtfcHl0aG9uJywgJy1waHQnLCAnMC41JywgJy1waCcsICc3LjUnLCAnLW50JywgJy1tYScsICcyMDAnLCAnLWltYWUnLCAnPGluZmlsZS5tYWU+JywgJy1vbWFlJywgJzxvdXRmaWxlLm1hZT4n

> <r_lp_tautomer_probability>
1

> <r_epik_Ionization_Penalty>
  0.0807

> <r_epik_Ionization_Penalty_Charging>
  0.0000

> <r_epik_Ionization_Penalty_Neutral>
  0.0807

> <r_epik_State_Penalty>
  0.0714

> <r_epik_Charging_Adjusted_Penalty>
0.0714454811770424

> <i_epik_Tot_Q>
0

> <i_epik_Tot_abs_Q>
0

> <s_lp_Force_Field>
OPLS3e

> <r_lp_Energy>
45.165487

> <b_lp_Chiralities_Consistent>
1

> <s_lp_Variant>
sdf/actives_sanitized.sdf:30-1

$$$$
sdf/actives_sanitized.sdf:31
                    3D
 Schrodinger Suite 2020-1.
 63 67  0  0  1  0            999 V2000
   -5.4897   -2.2548    3.3268 C   0  0  0  0  0  0
   -5.5348   -1.0984    2.5443 C   0  0  0  0  0  0
   -3.1109   -2.5332    2.9227 C   0  0  0  0  0  0
   -4.2988   -2.9560    3.5131 C   0  0  0  0  0  0
   -3.1160   -1.3779    2.1256 C   0  0  0  0  0  0
   -4.3406   -0.6659    1.9492 C   0  0  0  0  0  0
   -4.0668    0.4291    1.1395 N   0  0  0  0  0  0
   -2.1064   -0.6830    1.3871 C   0  0  0  0  0  0
   -2.7330    0.3969    0.7772 C   0  0  0  0  0  0
   -2.0273    1.4371   -0.0889 C   0  0  0  0  0  0
   -0.5041    1.2722    0.1202 C   0  0  0  0  0  0
    0.0018   -0.1984    0.0363 C   0  0  2  0  0  0
   -0.6132   -0.9785    1.2460 C   0  0  0  0  0  0
    1.4751   -0.1812    0.0516 N   0  0  0  0  0  0
    2.3281   -1.2226    0.1167 C   0  0  0  0  0  0
    3.7796   -0.8314    0.1098 C   0  0  0  0  0  0
    1.9990   -2.4069    0.1777 O   0  0  0  0  0  0
    4.4807   -0.7127   -1.1057 C   0  0  0  0  0  0
    5.8275   -0.3479   -1.1032 C   0  0  0  0  0  0
    6.5012   -0.0942    0.0980 C   0  0  0  0  0  0
    5.8029   -0.2150    1.3041 C   0  0  0  0  0  0
    4.4564   -0.5804    1.3189 C   0  0  0  0  0  0
    3.6737   -0.7054    2.8624 Cl  0  0  0  0  0  0
    7.8672    0.2823    0.1023 N   0  0  0  0  0  0
    8.5948    0.9255    1.0725 C   0  0  0  0  0  0
    9.8346    1.0911    0.6918 N   0  0  0  0  0  0
    9.8321    0.5479   -0.5155 C   0  0  0  0  0  0
    8.6895    0.0406   -0.9299 N   0  0  0  0  0  0
   11.0841    0.4868   -1.3620 C   0  0  0  0  0  0
    3.7273   -1.0014   -2.6417 Cl  0  0  0  0  0  0
   -0.4154   -0.8500   -1.3165 C   0  0  0  0  0  0
   -6.7632   -2.7400    3.9957 C   0  0  0  0  0  0
   -5.0330    1.4540    0.7244 C   0  0  0  0  0  0
   -4.9620    2.7577    1.5655 C   0  0  0  0  0  0
   -5.1703    2.5551    3.0738 C   0  0  0  0  0  0
   -6.1843    1.9205    3.4387 O   0  5  0  0  0  0
   -4.3208    3.0632    3.8378 O   0  0  0  0  0  0
   -6.4614   -0.5590    2.4132 H   0  0  0  0  0  0
   -2.1997   -3.0918    3.0780 H   0  0  0  0  0  0
   -4.2885   -3.8457    4.1263 H   0  0  0  0  0  0
   -2.2803    1.2887   -1.1390 H   0  0  0  0  0  0
   -2.3243    2.4547    0.1601 H   0  0  0  0  0  0
   -0.0152    1.8720   -0.6498 H   0  0  0  0  0  0
   -0.2094    1.7152    1.0738 H   0  0  0  0  0  0
   -0.1067   -0.7008    2.1716 H   0  0  0  0  0  0
   -0.4539   -2.0509    1.1293 H   0  0  0  0  0  0
    1.8838    0.7416    0.0390 H   0  0  0  0  0  0
    6.3438   -0.2577   -2.0484 H   0  0  0  0  0  0
    6.3001   -0.0338    2.2457 H   0  0  0  0  0  0
    8.1475    1.2374    2.0046 H   0  0  0  0  0  0
   11.0161   -0.2155   -2.1937 H   0  0  0  0  0  0
   11.9243    0.1396   -0.7595 H   0  0  0  0  0  0
   11.3929    1.4708   -1.7151 H   0  0  0  0  0  0
   -1.4972   -0.9203   -1.4261 H   0  0  0  0  0  0
   -0.0386   -1.8680   -1.4189 H   0  0  0  0  0  0
   -0.0418   -0.2786   -2.1675 H   0  0  0  0  0  0
   -6.5685   -3.5073    4.7460 H   0  0  0  0  0  0
   -7.4549   -3.1362    3.2520 H   0  0  0  0  0  0
   -7.2609   -1.9108    4.5003 H   0  0  0  0  0  0
   -4.8358    1.6918   -0.3216 H   0  0  0  0  0  0
   -6.0410    1.0372    0.7265 H   0  0  0  0  0  0
   -4.0390    3.3010    1.3624 H   0  0  0  0  0  0
   -5.7470    3.4327    1.2234 H   0  0  0  0  0  0
  1  2  2  0  0  0
  1  4  1  0  0  0
  1 32  1  0  0  0
  2  6  1  0  0  0
  2 38  1  0  0  0
  3  5  1  0  0  0
  3  4  2  0  0  0
  3 39  1  0  0  0
  4 40  1  0  0  0
  5  6  2  0  0  0
  5  8  1  0  0  0
  6  7  1  0  0  0
  7  9  1  0  0  0
  7 33  1  0  0  0
  8  9  2  0  0  0
  8 13  1  0  0  0
  9 10  1  0  0  0
 10 11  1  0  0  0
 10 41  1  0  0  0
 10 42  1  0  0  0
 11 12  1  0  0  0
 11 43  1  0  0  0
 11 44  1  0  0  0
 12 13  1  0  0  0
 12 14  1  0  0  0
 12 31  1  0  0  0
 13 45  1  0  0  0
 13 46  1  0  0  0
 14 15  1  0  0  0
 14 47  1  0  0  0
 15 16  1  0  0  0
 15 17  2  0  0  0
 16 18  2  0  0  0
 16 22  1  0  0  0
 18 19  1  0  0  0
 18 30  1  0  0  0
 19 20  2  0  0  0
 19 48  1  0  0  0
 20 21  1  0  0  0
 20 24  1  0  0  0
 21 22  2  0  0  0
 21 49  1  0  0  0
 22 23  1  0  0  0
 24 25  1  0  0  0
 24 28  1  0  0  0
 25 26  2  0  0  0
 25 50  1  0  0  0
 26 27  1  0  0  0
 27 28  2  0  0  0
 27 29  1  0  0  0
 29 51  1  0  0  0
 29 52  1  0  0  0
 29 53  1  0  0  0
 31 54  1  0  0  0
 31 55  1  0  0  0
 31 56  1  0  0  0
 32 57  1  0  0  0
 32 58  1  0  0  0
 32 59  1  0  0  0
 33 34  1  0  0  0
 33 60  1  0  0  0
 33 61  1  0  0  0
 34 35  1  0  0  0
 34 62  1  0  0  0
 34 63  1  0  0  0
 35 36  1  0  0  0
 35 37  2  0  0  0
M  CHG  1  36  -1
M  END
> <chembl_id>
CHEMBL3628834

> <chembl_pref_name>
None

> <i_m_ct_stereo_status>
1

> <s_m_source_file>
sdf/actives_sanitized.sdf

> <i_m_source_file_index>
31

> <i_lp_mmshare_version>
49012

> <i_f3d_flags>
0

> <s_epik_input>
W2NIXTFbY0hdYyhbQ0gzXSlbY0hdYyhjMTIpbihbQ0gyXVtDSDJdQyg9TylbT0hdKWMzYzJbQ0gyXVtDQEBdKFtDSDNdKShbQ0gyXVtDSDJdMylbTkhdQyg9TyljNGMoQ2wpW2NIXWMoW2NIXWM0Q2wpLW41W2NIXW5jKG41KVtDSDNd

> <s_epik_cmdline>
J2VwaWtfcHl0aG9uJywgJy1waHQnLCAnMC41JywgJy1waCcsICc3LjUnLCAnLW50JywgJy1tYScsICcyMDAnLCAnLWltYWUnLCAnPGluZmlsZS5tYWU+JywgJy1vbWFlJywgJzxvdXRmaWxlLm1hZT4n

> <r_lp_tautomer_probability>
1

> <r_epik_Ionization_Penalty>
  0.0003

> <r_epik_Ionization_Penalty_Charging>
  0.0002

> <r_epik_Ionization_Penalty_Neutral>
  0.0000

> <r_epik_State_Penalty>
 -0.0000

> <r_epik_Charging_Adjusted_Penalty>
0.000236938743245631

> <i_epik_Tot_Q>
-1

> <i_epik_Tot_abs_Q>
1

> <s_lp_Force_Field>
OPLS3e

> <r_lp_Energy>
20.660909

> <b_lp_Chiralities_Consistent>
1

> <s_lp_Variant>
sdf/actives_sanitized.sdf:31-1

$$$$
sdf/actives_sanitized.sdf:32
                    3D
 Schrodinger Suite 2020-1.
 58 62  0  0  1  0            999 V2000
    0.1716   -0.0041   -0.0999 C   0  0  0  0  0  0
   -0.5833    1.1531    0.0753 N   0  0  0  0  0  0
   -1.8946    0.8952   -0.1152 N   0  0  0  0  0  0
   -2.0274   -0.4043   -0.2544 C   0  0  0  0  0  0
   -0.7728   -1.0121   -0.2561 C   0  0  0  0  0  0
    7.5222   -2.7050    0.0862 N   0  0  0  0  0  0
    1.6071   -0.1186   -0.2205 C   0  0  0  0  0  0
    8.3743   -2.8335    1.1669 C   0  0  0  0  0  0
    9.5919   -3.2003    0.8694 N   0  0  0  0  0  0
   -3.3919   -1.0509   -0.4225 C   0  0  0  0  0  0
    8.2926   -3.0294   -1.0245 C   0  0  0  0  0  0
    9.5739   -3.3347   -0.4902 C   0  0  0  0  0  0
    6.1510   -2.3658    0.1505 C   0  0  0  0  0  0
    2.1017   -1.2621    0.2955 N   0  0  0  0  0  0
   -0.1647    2.5136    0.1487 C   0  0  0  0  0  0
    5.2272   -2.9451   -0.7298 C   0  0  0  0  0  0
    2.5851    4.5453    1.7971 C   0  0  0  0  0  0
    3.4508   -1.6224    0.2408 C   0  0  0  0  0  0
    3.8815   -2.5795   -0.6851 C   0  0  0  0  0  0
    0.9593    2.8657    0.9096 C   0  0  0  0  0  0
    1.4040    4.1962    1.0024 C   0  0  0  0  0  0
    8.0430   -3.0828   -2.4030 C   0  0  0  0  0  0
    3.3590    5.5471    1.3968 N   0  3  0  0  0  0
    2.2865    0.7584   -0.7586 O   0  0  0  0  0  0
   10.6186   -3.7168   -1.3434 C   0  0  0  0  0  0
    5.7130   -1.4009    1.0678 C   0  0  0  0  0  0
    4.3678   -1.0357    1.1188 C   0  0  0  0  0  0
   -3.4598   -1.7183   -1.5740 F   0  0  0  0  0  0
   -3.6268   -1.9190    0.5607 F   0  0  0  0  0  0
   -4.3850   -0.1592   -0.4169 F   0  0  0  0  0  0
    2.8503    3.8517    2.8980 N   0  0  0  0  0  0
    3.0049   -3.1607   -1.5383 F   0  0  0  0  0  0
    9.1037   -3.4688   -3.2252 C   0  0  0  0  0  0
   10.3668   -3.7821   -2.7157 C   0  0  0  0  0  0
   -0.8714    3.5253   -0.5182 C   0  0  0  0  0  0
    0.6779    5.1800    0.3110 C   0  0  0  0  0  0
   -0.4494    4.8492   -0.4379 C   0  0  0  0  0  0
   11.4819   -4.2050   -3.6549 C   0  0  0  0  0  0
   -0.5779   -2.0641   -0.4083 H   0  0  0  0  0  0
    8.0070   -2.6505    2.1664 H   0  0  0  0  0  0
    1.4665   -1.9241    0.7173 H   0  0  0  0  0  0
    5.5372   -3.6976   -1.4394 H   0  0  0  0  0  0
    1.4900    2.0902    1.4438 H   0  0  0  0  0  0
    7.0830   -2.8344   -2.8293 H   0  0  0  0  0  0
    4.1765    5.7983    1.9331 H   0  0  0  0  0  0
   11.5957   -3.9557   -0.9488 H   0  0  0  0  0  0
    6.4097   -0.9244    1.7422 H   0  0  0  0  0  0
    4.0437   -0.2933    1.8341 H   0  0  0  0  0  0
    3.6594    4.0817    3.4559 H   0  0  0  0  0  0
    2.2358    3.1003    3.1759 H   0  0  0  0  0  0
    8.9330   -3.5217   -4.2909 H   0  0  0  0  0  0
   -1.7440    3.2945   -1.1123 H   0  0  0  0  0  0
    0.9736    6.2190    0.3540 H   0  0  0  0  0  0
   -0.9975    5.6211   -0.9584 H   0  0  0  0  0  0
   11.1292   -4.3479   -4.6772 H   0  0  0  0  0  0
   11.9163   -5.1475   -3.3194 H   0  0  0  0  0  0
   12.2781   -3.4599   -3.6571 H   0  0  0  0  0  0
    3.1299    6.0490    0.5512 H   0  0  0  0  0  0
  1  2  1  0  0  0
  1  5  2  0  0  0
  1  7  1  0  0  0
  2  3  1  0  0  0
  2 15  1  0  0  0
  3  4  2  0  0  0
  4  5  1  0  0  0
  4 10  1  0  0  0
  5 39  1  0  0  0
  6 13  1  0  0  0
  6  8  1  0  0  0
  6 11  1  0  0  0
  7 14  1  0  0  0
  7 24  2  0  0  0
  8  9  2  0  0  0
  8 40  1  0  0  0
  9 12  1  0  0  0
 10 28  1  0  0  0
 10 29  1  0  0  0
 10 30  1  0  0  0
 11 12  2  0  0  0
 11 22  1  0  0  0
 12 25  1  0  0  0
 13 26  2  0  0  0
 13 16  1  0  0  0
 14 18  1  0  0  0
 14 41  1  0  0  0
 15 20  2  0  0  0
 15 35  1  0  0  0
 16 19  2  0  0  0
 16 42  1  0  0  0
 17 21  1  0  0  0
 17 23  2  0  0  0
 17 31  1  0  0  0
 18 19  1  0  0  0
 18 27  2  0  0  0
 19 32  1  0  0  0
 20 21  1  0  0  0
 20 43  1  0  0  0
 21 36  2  0  0  0
 22 33  2  0  0  0
 22 44  1  0  0  0
 23 45  1  0  0  0
 23 58  1  0  0  0
 25 34  2  0  0  0
 25 46  1  0  0  0
 26 27  1  0  0  0
 26 47  1  0  0  0
 27 48  1  0  0  0
 31 49  1  0  0  0
 31 50  1  0  0  0
 33 34  1  0  0  0
 33 51  1  0  0  0
 34 38  1  0  0  0
 35 37  2  0  0  0
 35 52  1  0  0  0
 36 37  1  0  0  0
 36 53  1  0  0  0
 37 54  1  0  0  0
 38 55  1  0  0  0
 38 56  1  0  0  0
 38 57  1  0  0  0
M  CHG  1  23   1
M  END
> <chembl_id>
CHEMBL186693

> <chembl_pref_name>
None

> <s_m_source_file>
sdf/actives_sanitized.sdf

> <i_m_source_file_index>
32

> <i_lp_mmshare_version>
49012

> <i_m_ct_stereo_status>
1

> <i_f3d_flags>
0

> <s_epik_input>
W2NIXTFbY0hdW2NIXWMoL0MoPU4vW0hdKVtOSDJdKVtjSF1jMS1uKG5jKFtjSF0yKUMoRikoRilGKWMyQyg9TylbTkhdYyhbY0hdW2NIXTMpYyhGKVtjSF1jMy1uNFtjSF1uYyhjNDUpW2NIXWMoW0NIM10pW2NIXVtjSF01

> <s_epik_cmdline>
J2VwaWtfcHl0aG9uJywgJy1waHQnLCAnMC41JywgJy1waCcsICc3LjUnLCAnLW50JywgJy1tYScsICcyMDAnLCAnLWltYWUnLCAnPGluZmlsZS5tYWU+JywgJy1vbWFlJywgJzxvdXRmaWxlLm1hZT4n

> <r_lp_tautomer_probability>
1

> <r_epik_Ionization_Penalty>
  0.0156

> <r_epik_Ionization_Penalty_Charging>
  0.0010

> <r_epik_Ionization_Penalty_Neutral>
  0.0146

> <r_epik_State_Penalty>
  0.0114

> <r_epik_Charging_Adjusted_Penalty>
0.0124320701282331

> <i_epik_Tot_Q>
1

> <i_epik_Tot_abs_Q>
1

> <s_epik_Chemistry_Notes>
This compound has an imine and may undergo hydrolysis.

> <s_lp_Force_Field>
OPLS3e

> <r_lp_Energy>
48.841374

> <b_lp_Chiralities_Consistent>
1

> <s_lp_Variant>
sdf/actives_sanitized.sdf:32-1

$$$$
sdf/actives_sanitized.sdf:33
                    3D
 Schrodinger Suite 2020-1.
 55 59  0  0  1  0            999 V2000
    0.1718   -0.0034   -0.0932 C   0  0  0  0  0  0
   -0.5843    1.1530    0.0816 N   0  0  0  0  0  0
   -1.8952    0.8938   -0.1096 N   0  0  0  0  0  0
   -2.0271   -0.4058   -0.2497 C   0  0  0  0  0  0
   -0.7717   -1.0122   -0.2502 C   0  0  0  0  0  0
    7.5229   -2.7058    0.0682 N   0  0  0  0  0  0
    1.6074   -0.1165   -0.2136 C   0  0  0  0  0  0
    8.2893   -3.0327   -1.0447 C   0  0  0  0  0  0
    8.3799   -2.8296    1.1457 C   0  0  0  0  0  0
    9.5962   -3.1968    0.8438 N   0  0  0  0  0  0
   -3.3910   -1.0534   -0.4193 C   0  0  0  0  0  0
    9.5719   -3.3349   -0.5153 C   0  0  0  0  0  0
    8.0346   -3.0895   -2.4218 C   0  0  0  0  0  0
    6.1518   -2.3662    0.1381 C   0  0  0  0  0  0
    2.1027   -1.2607    0.3003 N   0  0  0  0  0  0
   -0.1671    2.5139    0.1542 C   0  0  0  0  0  0
   10.6124   -3.7159   -1.3721 C   0  0  0  0  0  0
    5.2238   -2.9458   -0.7375 C   0  0  0  0  0  0
    2.5812    4.5508    1.7989 C   0  0  0  0  0  0
    9.0895   -3.4733   -3.2551 C   0  0  0  0  0  0
    3.4518   -1.6218    0.2402 C   0  0  0  0  0  0
   10.3568   -3.7839   -2.7420 C   0  0  0  0  0  0
    3.8782   -2.5796   -0.6869 C   0  0  0  0  0  0
    0.9566    2.8684    0.9146 C   0  0  0  0  0  0
    1.3998    4.1995    1.0056 C   0  0  0  0  0  0
    3.3531    5.5536    1.3975 N   0  3  0  0  0  0
    2.2864    0.7615   -0.7507 O   0  0  0  0  0  0
    5.7178   -1.4005    1.0568 C   0  0  0  0  0  0
    4.3730   -1.0348    1.1136 C   0  0  0  0  0  0
   -3.4558   -1.7247   -1.5686 F   0  0  0  0  0  0
   -3.6283   -1.9182    0.5664 F   0  0  0  0  0  0
   -4.3847   -0.1620   -0.4190 F   0  0  0  0  0  0
    2.8490    3.8583    2.8999 N   0  0  0  0  0  0
    8.7835   -3.5525   -4.9562 Cl  0  0  0  0  0  0
    2.9977   -3.1610   -1.5360 F   0  0  0  0  0  0
   11.6500   -4.2582   -3.7892 Cl  0  0  0  0  0  0
   -0.8751    3.5241   -0.5133 C   0  0  0  0  0  0
    0.6718    5.1818    0.3137 C   0  0  0  0  0  0
   -0.4551    4.8487   -0.4346 C   0  0  0  0  0  0
   -0.5758   -2.0641   -0.4026 H   0  0  0  0  0  0
    8.0168   -2.6419    2.1460 H   0  0  0  0  0  0
    7.0703   -2.8417   -2.8395 H   0  0  0  0  0  0
    1.4679   -1.9234    0.7213 H   0  0  0  0  0  0
   11.5924   -3.9516   -0.9831 H   0  0  0  0  0  0
    5.5298   -3.6990   -1.4480 H   0  0  0  0  0  0
    1.4882    2.0946    1.4500 H   0  0  0  0  0  0
    4.1705    5.8064    1.9332 H   0  0  0  0  0  0
    6.4172   -0.9235    1.7281 H   0  0  0  0  0  0
    4.0526   -0.2916    1.8296 H   0  0  0  0  0  0
    3.6574    4.0910    3.4579 H   0  0  0  0  0  0
    2.2352    3.1072    3.1798 H   0  0  0  0  0  0
   -1.7475    3.2920   -1.1071 H   0  0  0  0  0  0
    0.9655    6.2215    0.3560 H   0  0  0  0  0  0
   -1.0043    5.6189   -0.9560 H   0  0  0  0  0  0
    3.1223    6.0558    0.5525 H   0  0  0  0  0  0
  1  2  1  0  0  0
  1  5  2  0  0  0
  1  7  1  0  0  0
  2  3  1  0  0  0
  2 16  1  0  0  0
  3  4  2  0  0  0
  4  5  1  0  0  0
  4 11  1  0  0  0
  5 40  1  0  0  0
  6 14  1  0  0  0
  6  8  1  0  0  0
  6  9  1  0  0  0
  7 15  1  0  0  0
  7 27  2  0  0  0
  8 12  2  0  0  0
  8 13  1  0  0  0
  9 10  2  0  0  0
  9 41  1  0  0  0
 10 12  1  0  0  0
 11 30  1  0  0  0
 11 31  1  0  0  0
 11 32  1  0  0  0
 12 17  1  0  0  0
 13 20  2  0  0  0
 13 42  1  0  0  0
 14 28  2  0  0  0
 14 18  1  0  0  0
 15 21  1  0  0  0
 15 43  1  0  0  0
 16 24  2  0  0  0
 16 37  1  0  0  0
 17 22  2  0  0  0
 17 44  1  0  0  0
 18 23  2  0  0  0
 18 45  1  0  0  0
 19 25  1  0  0  0
 19 26  2  0  0  0
 19 33  1  0  0  0
 20 22  1  0  0  0
 20 34  1  0  0  0
 21 23  1  0  0  0
 21 29  2  0  0  0
 22 36  1  0  0  0
 23 35  1  0  0  0
 24 25  1  0  0  0
 24 46  1  0  0  0
 25 38  2  0  0  0
 26 47  1  0  0  0
 26 55  1  0  0  0
 28 29  1  0  0  0
 28 48  1  0  0  0
 29 49  1  0  0  0
 33 50  1  0  0  0
 33 51  1  0  0  0
 37 39  2  0  0  0
 37 52  1  0  0  0
 38 39  1  0  0  0
 38 53  1  0  0  0
 39 54  1  0  0  0
M  CHG  1  26   1
M  END
> <chembl_id>
CHEMBL360636

> <chembl_pref_name>
None

> <s_m_source_file>
sdf/actives_sanitized.sdf

> <i_m_source_file_index>
33

> <i_lp_mmshare_version>
49012

> <i_m_ct_stereo_status>
1

> <i_f3d_flags>
0

> <s_epik_input>
W2NIXTFbY0hdW2NIXWMoL0MoPU4vW0hdKVtOSDJdKVtjSF1jMS1uKG5jKFtjSF0yKUMoRikoRilGKWMyQyg9TylbTkhdYyhbY0hdW2NIXTMpYyhGKVtjSF1jMy1uNFtjSF1uYyhjNDUpW2NIXWMoQ2wpYyhDbClbY0hdNQ==

> <s_epik_cmdline>
J2VwaWtfcHl0aG9uJywgJy1waHQnLCAnMC41JywgJy1waCcsICc3LjUnLCAnLW50JywgJy1tYScsICcyMDAnLCAnLWltYWUnLCAnPGluZmlsZS5tYWU+JywgJy1vbWFlJywgJzxvdXRmaWxlLm1hZT4n

> <r_lp_tautomer_probability>
1

> <r_epik_Ionization_Penalty>
  0.0020

> <r_epik_Ionization_Penalty_Charging>
  0.0010

> <r_epik_Ionization_Penalty_Neutral>
  0.0010

> <r_epik_State_Penalty>
 -0.0000

> <r_epik_Charging_Adjusted_Penalty>
0.000984797499885888

> <i_epik_Tot_Q>
1

> <i_epik_Tot_abs_Q>
1

> <s_epik_Chemistry_Notes>
This compound has an imine and may undergo hydrolysis.

> <s_lp_Force_Field>
OPLS3e

> <r_lp_Energy>
51.996642

> <b_lp_Chiralities_Consistent>
1

> <s_lp_Variant>
sdf/actives_sanitized.sdf:33-1

$$$$
sdf/actives_sanitized.sdf:34
                    3D
 Schrodinger Suite 2020-1.
 53 56  0  0  1  0            999 V2000
    0.1742    2.5341   -0.2814 C   0  0  0  0  0  0
   -0.5006    3.7258   -0.5224 C   0  0  0  0  0  0
   -1.8893    3.7600   -0.5970 C   0  0  0  0  0  0
   -0.5199    1.3280   -0.1029 C   0  0  0  0  0  0
   -1.9284    1.3281   -0.1725 C   0  0  0  0  0  0
   -2.5965    2.5625   -0.4217 C   0  0  0  0  0  0
   -4.3386    2.3550   -0.4727 S   0  0  0  0  0  0
   -4.1819    0.6323   -0.1531 C   0  0  0  0  0  0
   -2.8533    0.2530   -0.0296 C   0  0  0  0  0  0
   -5.2956   -0.1828   -0.0705 C   0  0  0  0  0  0
   -6.4120    0.2968    0.4631 N   0  0  0  0  0  0
   -5.2088   -1.4276   -0.5224 N   0  3  0  0  0  0
    0.0534    0.0914    0.1371 O   0  0  0  0  0  0
    1.4742   -0.0378    0.2737 C   0  0  2  0  0  0
    1.8169   -1.5344    0.1890 C   0  0  0  0  0  0
    1.9678    0.5691    1.5894 C   0  0  0  0  0  0
    1.1904    0.4857    2.7504 C   0  0  0  0  0  0
    1.6483    1.0497    3.9382 C   0  0  0  0  0  0
    2.8828    1.6945    3.9649 C   0  0  0  0  0  0
    3.6643    1.7795    2.8150 C   0  0  0  0  0  0
    3.2067    1.2164    1.6268 C   0  0  0  0  0  0
    1.5268   -2.0228   -1.1164 O   0  0  0  0  0  0
    1.7516   -3.3111   -1.4414 C   0  0  0  0  0  0
    1.3687   -3.4992   -2.7660 N   0  0  0  0  0  0
    2.2104   -4.1531   -0.6665 O   0  0  0  0  0  0
    1.4467   -4.6537   -3.5633 C   0  0  0  0  0  0
    0.2033    4.8683   -0.6877 F   0  0  0  0  0  0
    0.8086   -4.5878   -4.8052 C   0  0  0  0  0  0
    0.8354   -5.6820   -5.6659 C   0  0  0  0  0  0
    1.5054   -6.8422   -5.2866 C   0  0  0  0  0  0
    2.1508   -6.9174   -4.0551 C   0  0  0  0  0  0
    2.1250   -5.8257   -3.1909 C   0  0  0  0  0  0
    1.2520    2.5656   -0.2339 H   0  0  0  0  0  0
   -2.4039    4.6908   -0.7865 H   0  0  0  0  0  0
   -2.5433   -0.7635    0.1645 H   0  0  0  0  0  0
   -7.2322   -0.2881    0.5278 H   0  0  0  0  0  0
   -6.4358    1.2486    0.7998 H   0  0  0  0  0  0
   -6.0114   -2.0380   -0.4717 H   0  0  0  0  0  0
    1.9616    0.4637   -0.5656 H   0  0  0  0  0  0
    1.2528   -2.0946    0.9367 H   0  0  0  0  0  0
    2.8772   -1.6837    0.4006 H   0  0  0  0  0  0
    0.2333   -0.0150    2.7351 H   0  0  0  0  0  0
    1.0492    0.9874    4.8348 H   0  0  0  0  0  0
    3.2380    2.1318    4.8864 H   0  0  0  0  0  0
    4.6209    2.2802    2.8448 H   0  0  0  0  0  0
    3.8157    1.2858    0.7370 H   0  0  0  0  0  0
    0.9769   -2.6908   -3.2261 H   0  0  0  0  0  0
    0.2867   -3.6916   -5.1097 H   0  0  0  0  0  0
    0.3393   -5.6312   -6.6240 H   0  0  0  0  0  0
    1.5274   -7.6906   -5.9547 H   0  0  0  0  0  0
    2.6728   -7.8195   -3.7718 H   0  0  0  0  0  0
    2.6448   -5.9151   -2.2505 H   0  0  0  0  0  0
   -4.3434   -1.7557   -0.9258 H   0  0  0  0  0  0
  1  4  2  0  0  0
  1  2  1  0  0  0
  1 33  1  0  0  0
  2  3  2  0  0  0
  2 27  1  0  0  0
  3  6  1  0  0  0
  3 34  1  0  0  0
  4  5  1  0  0  0
  4 13  1  0  0  0
  5  9  1  0  0  0
  5  6  2  0  0  0
  6  7  1  0  0  0
  7  8  1  0  0  0
  8  9  2  0  0  0
  8 10  1  0  0  0
  9 35  1  0  0  0
 10 11  1  0  0  0
 10 12  2  0  0  0
 11 36  1  0  0  0
 11 37  1  0  0  0
 12 38  1  0  0  0
 12 53  1  0  0  0
 13 14  1  0  0  0
 14 16  1  0  0  0
 14 15  1  0  0  0
 14 39  1  0  0  0
 15 22  1  0  0  0
 15 40  1  0  0  0
 15 41  1  0  0  0
 16 17  2  0  0  0
 16 21  1  0  0  0
 17 18  1  0  0  0
 17 42  1  0  0  0
 18 19  2  0  0  0
 18 43  1  0  0  0
 19 20  1  0  0  0
 19 44  1  0  0  0
 20 21  2  0  0  0
 20 45  1  0  0  0
 21 46  1  0  0  0
 22 23  1  0  0  0
 23 24  1  0  0  0
 23 25  2  0  0  0
 24 26  1  0  0  0
 24 47  1  0  0  0
 26 28  2  0  0  0
 26 32  1  0  0  0
 28 29  1  0  0  0
 28 48  1  0  0  0
 29 30  2  0  0  0
 29 49  1  0  0  0
 30 31  1  0  0  0
 30 50  1  0  0  0
 31 32  2  0  0  0
 31 51  1  0  0  0
 32 52  1  0  0  0
M  CHG  1  12   1
M  END
> <chembl_id>
CHEMBL602083

> <chembl_pref_name>
None

> <s_m_source_file>
sdf/actives_sanitized.sdf

> <i_m_source_file_index>
34

> <i_lp_mmshare_version>
49012

> <i_m_ct_stereo_status>
1

> <i_f3d_flags>
0

> <s_epik_input>
W0hdXE49QyhbTkgyXSlcYyhbY0hdMSlzYyhjMTIpW2NIXWMoRilbY0hdYzJPW0NAQEhdKGMzW2NIXVtjSF1bY0hdW2NIXVtjSF0zKVtDSDJdT0MoPU8pW05IXWM0W2NIXVtjSF1bY0hdW2NIXVtjSF00

> <s_epik_cmdline>
J2VwaWtfcHl0aG9uJywgJy1waHQnLCAnMC41JywgJy1waCcsICc3LjUnLCAnLW50JywgJy1tYScsICcyMDAnLCAnLWltYWUnLCAnPGluZmlsZS5tYWU+JywgJy1vbWFlJywgJzxvdXRmaWxlLm1hZT4n

> <r_lp_tautomer_probability>
1

> <r_epik_Ionization_Penalty>
  0.0095

> <r_epik_Ionization_Penalty_Charging>
  0.0095

> <r_epik_Ionization_Penalty_Neutral>
  0.0000

> <r_epik_State_Penalty>
 -0.0000

> <r_epik_Charging_Adjusted_Penalty>
0.00945881282357717

> <i_epik_Tot_Q>
1

> <i_epik_Tot_abs_Q>
1

> <s_epik_Chemistry_Notes>
This compound has an ester and may undergo hydrolysis at high or low pH. This compound has an imine and may undergo hydrolysis.

> <s_lp_Force_Field>
OPLS3e

> <r_lp_Energy>
36.373126

> <b_lp_Chiralities_Consistent>
1

> <s_lp_Variant>
sdf/actives_sanitized.sdf:34-1

$$$$
sdf/actives_sanitized.sdf:35
                    3D
 Schrodinger Suite 2020-1.
 57 61  0  0  1  0            999 V2000
   -1.4100   -1.7093   -1.3145 N   0  0  0  0  0  0
   -0.5841   -1.5844   -3.3446 C   0  0  0  0  0  0
   -0.4821   -1.8552   -4.7143 C   0  0  0  0  0  0
   -2.5408   -3.0672   -3.1510 C   0  0  0  0  0  0
   -2.4195   -3.3284   -4.5228 C   0  0  0  0  0  0
   -1.4054   -2.7311   -5.2970 C   0  0  0  0  0  0
   -1.6101   -2.1936   -2.5862 C   0  0  0  0  0  0
   -0.3153   -0.8756   -1.3569 C   0  0  0  0  0  0
    0.1953   -0.7730   -2.5625 N   0  0  0  0  0  0
    0.1847   -0.1355   -0.1187 C   0  0  1  0  0  0
    1.7231    0.0813   -0.1414 C   0  0  0  0  0  0
    2.2619    0.6792    1.0835 N   0  0  0  0  0  0
    2.5230    1.9874    1.2659 C   0  0  0  0  0  0
    2.9817    2.3823    2.6485 C   0  0  0  0  0  0
    2.3426    2.8459    0.4001 O   0  0  0  0  0  0
    4.0186    1.7163    3.3392 C   0  0  0  0  0  0
    4.4038    2.1553    4.6083 C   0  0  0  0  0  0
    3.7882    3.2619    5.2028 C   0  0  0  0  0  0
    2.7771    3.9349    4.5114 C   0  0  0  0  0  0
    2.3856    3.5013    3.2470 C   0  0  0  0  0  0
   -1.2813   -3.0232   -6.7872 C   0  0  0  0  0  0
   -3.4237   -4.2807   -5.1599 C   0  0  0  0  0  0
    4.1918    3.7013    6.4820 N   0  0  0  0  0  0
    4.7408    2.9724    7.5143 C   0  0  0  0  0  0
    4.9939    3.7141    8.5634 N   0  0  0  0  0  0
    4.6051    5.0102    8.2404 N   0  0  0  0  0  0
    4.1389    4.9700    7.0174 C   0  0  0  0  0  0
    4.8905    0.3732    2.6719 Cl  0  0  0  0  0  0
   -0.5875    1.1665    0.1316 C   0  0  0  0  0  0
   -1.1069    1.4330    1.4036 C   0  0  0  0  0  0
   -1.7814    2.6258    1.6489 C   0  0  0  0  0  0
   -1.9363    3.5545    0.6227 C   0  0  0  0  0  0
   -1.4210    3.3019   -0.6462 C   0  0  0  0  0  0
   -0.7452    2.1098   -0.8914 C   0  0  0  0  0  0
   -1.9349   -1.8983   -0.4729 H   0  0  0  0  0  0
    0.2965   -1.3957   -5.3061 H   0  0  0  0  0  0
   -3.3191   -3.5228   -2.5561 H   0  0  0  0  0  0
   -0.0062   -0.7850    0.7385 H   0  0  0  0  0  0
    2.2207   -0.8807   -0.2714 H   0  0  0  0  0  0
    2.0085    0.6726   -1.0148 H   0  0  0  0  0  0
    2.4857    0.0382    1.8308 H   0  0  0  0  0  0
    5.2021    1.6375    5.1203 H   0  0  0  0  0  0
    2.2840    4.7928    4.9449 H   0  0  0  0  0  0
    1.6002    4.0423    2.7370 H   0  0  0  0  0  0
   -1.1768   -4.0953   -6.9565 H   0  0  0  0  0  0
   -0.4181   -2.5307   -7.2368 H   0  0  0  0  0  0
   -2.1758   -2.6924   -7.3152 H   0  0  0  0  0  0
   -3.9328   -3.7941   -5.9920 H   0  0  0  0  0  0
   -4.1863   -4.6149   -4.4551 H   0  0  0  0  0  0
   -2.9145   -5.1605   -5.5547 H   0  0  0  0  0  0
    4.9120    1.9105    7.4166 H   0  0  0  0  0  0
    3.7561    5.8009    6.4434 H   0  0  0  0  0  0
   -0.9821    0.7213    2.2066 H   0  0  0  0  0  0
   -2.1801    2.8312    2.6313 H   0  0  0  0  0  0
   -2.4586    4.4806    0.8128 H   0  0  0  0  0  0
   -1.5408    4.0290   -1.4357 H   0  0  0  0  0  0
   -0.3374    1.9265   -1.8748 H   0  0  0  0  0  0
  1  7  1  0  0  0
  1  8  1  0  0  0
  1 35  1  0  0  0
  2  3  2  0  0  0
  2  7  1  0  0  0
  2  9  1  0  0  0
  3  6  1  0  0  0
  3 36  1  0  0  0
  4  7  2  0  0  0
  4  5  1  0  0  0
  4 37  1  0  0  0
  5  6  2  0  0  0
  5 22  1  0  0  0
  6 21  1  0  0  0
  8  9  2  0  0  0
  8 10  1  0  0  0
 10 11  1  0  0  0
 10 29  1  0  0  0
 10 38  1  0  0  0
 11 12  1  0  0  0
 11 39  1  0  0  0
 11 40  1  0  0  0
 12 13  1  0  0  0
 12 41  1  0  0  0
 13 14  1  0  0  0
 13 15  2  0  0  0
 14 16  2  0  0  0
 14 20  1  0  0  0
 16 17  1  0  0  0
 16 28  1  0  0  0
 17 18  2  0  0  0
 17 42  1  0  0  0
 18 19  1  0  0  0
 18 23  1  0  0  0
 19 20  2  0  0  0
 19 43  1  0  0  0
 20 44  1  0  0  0
 21 45  1  0  0  0
 21 46  1  0  0  0
 21 47  1  0  0  0
 22 48  1  0  0  0
 22 49  1  0  0  0
 22 50  1  0  0  0
 23 24  1  0  0  0
 23 27  1  0  0  0
 24 25  2  0  0  0
 24 51  1  0  0  0
 25 26  1  0  0  0
 26 27  2  0  0  0
 27 52  1  0  0  0
 29 30  2  0  0  0
 29 34  1  0  0  0
 30 31  1  0  0  0
 30 53  1  0  0  0
 31 32  2  0  0  0
 31 54  1  0  0  0
 32 33  1  0  0  0
 32 55  1  0  0  0
 33 34  2  0  0  0
 33 56  1  0  0  0
 34 57  1  0  0  0
M  END
> <chembl_id>
CHEMBL3423058

> <chembl_pref_name>
None

> <i_m_ct_stereo_status>
1

> <s_m_source_file>
sdf/actives_sanitized.sdf

> <i_m_source_file_index>
35

> <i_lp_mmshare_version>
49012

> <i_f3d_flags>
0

> <s_epik_input>
W2NIXTFjKFtDSDNdKWMoW0NIM10pW2NIXWMoYzEyKVtuSF1jKG4yKVtDQEhdKGMzW2NIXVtjSF1bY0hdW2NIXVtjSF0zKVtDSDJdW05IXUMoPU8pYzRjKENsKVtjSF1jKFtjSF1bY0hdNCktbjVbY0hdbm5bY0hdNQ==

> <s_epik_cmdline>
J2VwaWtfcHl0aG9uJywgJy1waHQnLCAnMC41JywgJy1waCcsICc3LjUnLCAnLW50JywgJy1tYScsICcyMDAnLCAnLWltYWUnLCAnPGluZmlsZS5tYWU+JywgJy1vbWFlJywgJzxvdXRmaWxlLm1hZT4n

> <r_lp_tautomer_probability>
1

> <r_epik_Ionization_Penalty>
  0.0167

> <r_epik_Ionization_Penalty_Charging>
  0.0000

> <r_epik_Ionization_Penalty_Neutral>
  0.0167

> <r_epik_State_Penalty>
  0.0132

> <r_epik_Charging_Adjusted_Penalty>
0.013171618342122

> <i_epik_Tot_Q>
0

> <i_epik_Tot_abs_Q>
0

> <s_lp_Force_Field>
OPLS3e

> <r_lp_Energy>
37.370195

> <b_lp_Chiralities_Consistent>
1

> <s_lp_Variant>
sdf/actives_sanitized.sdf:35-1

$$$$
sdf/actives_sanitized.sdf:36
                    3D
 Schrodinger Suite 2020-1.
 54 58  0  0  1  0            999 V2000
    0.0788   -0.0668    0.0895 C   0  0  0  0  0  0
   -0.6110    1.1373    0.2138 N   0  0  0  0  0  0
   -1.9438    0.9241    0.2052 N   0  0  0  0  0  0
   -2.1359   -0.3742    0.2397 C   0  0  0  0  0  0
   -0.9130   -1.0394    0.1568 C   0  0  0  0  0  0
    7.3333   -3.1105    0.0806 N   0  0  0  0  0  0
    1.4867   -0.2602   -0.1802 C   0  0  0  0  0  0
    7.9512   -4.0008    0.9393 C   0  0  0  0  0  0
   -3.5403   -0.9461    0.2955 C   0  0  0  0  0  0
    9.2078   -4.2460    0.6727 N   0  0  0  0  0  0
    8.3156   -2.7565   -0.8337 C   0  0  0  0  0  0
    5.9790   -2.7098    0.1281 C   0  0  0  0  0  0
    1.9903   -1.3947    0.3506 N   0  0  0  0  0  0
   -0.1407    2.4754    0.0790 C   0  0  0  0  0  0
    5.2598   -2.4824   -1.0517 C   0  0  0  0  0  0
    2.8391    4.5515    1.1785 C   0  0  0  0  0  0
    9.4670   -3.4832   -0.4309 C   0  0  0  0  0  0
    3.3255   -1.8058    0.2412 C   0  0  0  0  0  0
    3.9352   -2.0473   -1.0008 C   0  0  0  0  0  0
    1.0666    2.8618    0.6784 C   0  0  0  0  0  0
    1.5690    4.1689    0.5556 C   0  0  0  0  0  0
    3.6098    5.4476    0.5740 N   0  3  0  0  0  0
    2.1364    0.5482   -0.8467 O   0  0  0  0  0  0
    5.3594   -2.4847    1.3640 C   0  0  0  0  0  0
    9.5423   -1.7746   -2.6405 N   0  0  0  0  0  0
    4.0363   -2.0468    1.4195 C   0  0  0  0  0  0
   -4.1738   -0.7702   -0.8637 F   0  0  0  0  0  0
   -3.5229   -2.2544    0.5510 F   0  0  0  0  0  0
   -4.2662   -0.3630    1.2500 F   0  0  0  0  0  0
    3.1872    3.9913    2.3309 N   0  0  0  0  0  0
    8.3840   -1.9032   -1.9429 C   0  0  0  0  0  0
    3.2542   -1.8753   -2.1586 F   0  0  0  0  0  0
   10.6601   -3.3460   -1.1584 C   0  0  0  0  0  0
   -0.8739    3.4312   -0.6395 C   0  0  0  0  0  0
   10.6359   -2.4786   -2.2527 C   0  0  0  0  0  0
    0.8144    5.0950   -0.1835 C   0  0  0  0  0  0
   -0.3956    4.7318   -0.7711 C   0  0  0  0  0  0
   -0.7751   -2.1099    0.1016 H   0  0  0  0  0  0
    7.3881   -4.4461    1.7466 H   0  0  0  0  0  0
    1.3882   -1.9624    0.9289 H   0  0  0  0  0  0
    5.7106   -2.6647   -2.0160 H   0  0  0  0  0  0
    1.6196    2.1313    1.2520 H   0  0  0  0  0  0
    4.4879    5.7204    0.9906 H   0  0  0  0  0  0
    5.8981   -2.6403    2.2876 H   0  0  0  0  0  0
    3.5732   -1.8834    2.3822 H   0  0  0  0  0  0
    4.0602    4.2439    2.7704 H   0  0  0  0  0  0
    2.5734    3.3178    2.7657 H   0  0  0  0  0  0
    7.5446   -1.3133   -2.2788 H   0  0  0  0  0  0
   11.5567   -3.8830   -0.8854 H   0  0  0  0  0  0
   -1.8099    3.1720   -1.1135 H   0  0  0  0  0  0
   11.5255   -2.3324   -2.8477 H   0  0  0  0  0  0
    1.1530    6.1148   -0.3036 H   0  0  0  0  0  0
   -0.9634    5.4598   -1.3320 H   0  0  0  0  0  0
    3.3176    5.8462   -0.3064 H   0  0  0  0  0  0
  1  2  1  0  0  0
  1  5  2  0  0  0
  1  7  1  0  0  0
  2  3  1  0  0  0
  2 14  1  0  0  0
  3  4  2  0  0  0
  4  5  1  0  0  0
  4  9  1  0  0  0
  5 38  1  0  0  0
  6 12  1  0  0  0
  6  8  1  0  0  0
  6 11  1  0  0  0
  7 13  1  0  0  0
  7 23  2  0  0  0
  8 10  2  0  0  0
  8 39  1  0  0  0
  9 27  1  0  0  0
  9 28  1  0  0  0
  9 29  1  0  0  0
 10 17  1  0  0  0
 11 17  2  0  0  0
 11 31  1  0  0  0
 12 24  2  0  0  0
 12 15  1  0  0  0
 13 18  1  0  0  0
 13 40  1  0  0  0
 14 20  2  0  0  0
 14 34  1  0  0  0
 15 19  2  0  0  0
 15 41  1  0  0  0
 16 21  1  0  0  0
 16 22  2  0  0  0
 16 30  1  0  0  0
 17 33  1  0  0  0
 18 19  1  0  0  0
 18 26  2  0  0  0
 19 32  1  0  0  0
 20 21  1  0  0  0
 20 42  1  0  0  0
 21 36  2  0  0  0
 22 43  1  0  0  0
 22 54  1  0  0  0
 24 26  1  0  0  0
 24 44  1  0  0  0
 25 31  2  0  0  0
 25 35  1  0  0  0
 26 45  1  0  0  0
 30 46  1  0  0  0
 30 47  1  0  0  0
 31 48  1  0  0  0
 33 35  2  0  0  0
 33 49  1  0  0  0
 34 37  2  0  0  0
 34 50  1  0  0  0
 35 51  1  0  0  0
 36 37  1  0  0  0
 36 52  1  0  0  0
 37 53  1  0  0  0
M  CHG  1  22   1
M  END
> <chembl_id>
CHEMBL362362

> <chembl_pref_name>
None

> <s_m_source_file>
sdf/actives_sanitized.sdf

> <i_m_source_file_index>
36

> <i_lp_mmshare_version>
49012

> <i_m_ct_stereo_status>
1

> <i_f3d_flags>
0

> <s_epik_input>
W2NIXTFbY0hdW2NIXWMoL0MoPU4vW0hdKVtOSDJdKVtjSF1jMS1uKG5jKFtjSF0yKUMoRikoRilGKWMyQyg9TylbTkhdYyhbY0hdW2NIXTMpYyhGKVtjSF1jMy1uNFtjSF1uYyhjNDUpW2NIXVtjSF1uW2NIXTU=

> <s_epik_cmdline>
J2VwaWtfcHl0aG9uJywgJy1waHQnLCAnMC41JywgJy1waCcsICc3LjUnLCAnLW50JywgJy1tYScsICcyMDAnLCAnLWltYWUnLCAnPGluZmlsZS5tYWU+JywgJy1vbWFlJywgJzxvdXRmaWxlLm1hZT4n

> <r_lp_tautomer_probability>
1

> <r_epik_Ionization_Penalty>
  0.0079

> <r_epik_Ionization_Penalty_Charging>
  0.0079

> <r_epik_Ionization_Penalty_Neutral>
  0.0000

> <r_epik_State_Penalty>
 -0.0000

> <r_epik_Charging_Adjusted_Penalty>
0.00788411039449206

> <i_epik_Tot_Q>
1

> <i_epik_Tot_abs_Q>
1

> <s_epik_Chemistry_Notes>
This compound has an imine and may undergo hydrolysis.

> <s_lp_Force_Field>
OPLS3e

> <r_lp_Energy>
48.883123

> <b_lp_Chiralities_Consistent>
1

> <s_lp_Variant>
sdf/actives_sanitized.sdf:36-1

$$$$
sdf/actives_sanitized.sdf:37
                    3D
 Schrodinger Suite 2020-1.
 51 54  0  0  1  0            999 V2000
    0.0309    0.1423   -0.1388 O   0  0  0  0  0  0
    4.3247    2.6614    0.1385 C   0  0  0  0  0  0
    5.4158    2.7726    1.0055 C   0  0  0  0  0  0
    6.1538    3.9473    1.1153 C   0  0  0  0  0  0
    3.9597    3.7614   -0.6495 C   0  0  0  0  0  0
    4.6777    4.9670   -0.5703 C   0  0  0  0  0  0
    5.7795    5.0410    0.3254 C   0  0  0  0  0  0
    6.5384    6.6231    0.2816 S   0  0  0  0  0  0
    5.3941    7.1796   -0.9343 C   0  0  0  0  0  0
    4.4799    6.1905   -1.2686 C   0  0  0  0  0  0
    5.4501    8.4688   -1.4305 C   0  0  0  0  0  0
    6.6314    9.0507   -1.5951 N   0  0  0  0  0  0
    4.3136    9.0818   -1.7364 N   0  3  0  0  0  0
    3.5547    1.3877    0.0549 C   0  0  0  0  0  0
    4.2113    0.1506    0.0255 C   0  0  0  0  0  0
    2.0984   -1.0063   -0.1065 C   0  0  0  0  0  0
    1.4123    0.2084   -0.0809 C   0  0  0  0  0  0
    3.4897   -1.0386   -0.0541 C   0  0  0  0  0  0
    2.1535    1.3995    0.0037 C   0  0  0  0  0  0
   -0.7594    1.3380   -0.1737 C   0  0  2  0  0  0
   -2.1991    0.9693    0.1881 C   0  0  0  0  0  0
   -0.7330    2.0108   -1.5648 C   0  0  0  0  0  0
   -2.7947    1.5566    1.3082 C   0  0  0  0  0  0
   -4.1017    1.2279    1.6582 C   0  0  0  0  0  0
   -4.8119    0.3047    0.8926 C   0  0  0  0  0  0
   -4.2227   -0.2954   -0.2187 C   0  0  0  0  0  0
   -2.9164    0.0338   -0.5693 C   0  0  0  0  0  0
   -6.4328   -0.1005    1.3254 Cl  0  0  0  0  0  0
   -0.3208    1.4218   -2.5674 O   0  0  0  0  0  0
   -1.1903    3.2807   -1.5264 O   0  0  0  0  0  0
   -1.2445    4.0632   -2.7100 C   0  0  0  0  0  0
    5.6988    1.9303    1.6204 H   0  0  0  0  0  0
    6.9905    4.0087    1.7960 H   0  0  0  0  0  0
    3.1223    3.6812   -1.3277 H   0  0  0  0  0  0
    3.6923    6.3311   -1.9943 H   0  0  0  0  0  0
    6.6837    9.9934   -1.9523 H   0  0  0  0  0  0
    7.4742    8.5474   -1.3585 H   0  0  0  0  0  0
    4.3313   10.0241   -2.0978 H   0  0  0  0  0  0
    5.2903    0.1040    0.0573 H   0  0  0  0  0  0
    1.5470   -1.9332   -0.1700 H   0  0  0  0  0  0
    4.0093   -1.9852   -0.0777 H   0  0  0  0  0  0
    1.6487    2.3527    0.0332 H   0  0  0  0  0  0
   -0.3906    2.0421    0.5734 H   0  0  0  0  0  0
   -2.2491    2.2716    1.9070 H   0  0  0  0  0  0
   -4.5601    1.6885    2.5212 H   0  0  0  0  0  0
   -4.7735   -1.0142   -0.8076 H   0  0  0  0  0  0
   -2.4610   -0.4374   -1.4285 H   0  0  0  0  0  0
   -1.6482    5.0498   -2.4828 H   0  0  0  0  0  0
   -1.8880    3.5982   -3.4584 H   0  0  0  0  0  0
   -0.2501    4.1932   -3.1398 H   0  0  0  0  0  0
    3.4346    8.6061   -1.5947 H   0  0  0  0  0  0
  1 17  1  0  0  0
  1 20  1  0  0  0
  2  3  2  0  0  0
  2  5  1  0  0  0
  2 14  1  0  0  0
  3  4  1  0  0  0
  3 32  1  0  0  0
  4  7  2  0  0  0
  4 33  1  0  0  0
  5  6  2  0  0  0
  5 34  1  0  0  0
  6 10  1  0  0  0
  6  7  1  0  0  0
  7  8  1  0  0  0
  8  9  1  0  0  0
  9 10  2  0  0  0
  9 11  1  0  0  0
 10 35  1  0  0  0
 11 12  1  0  0  0
 11 13  2  0  0  0
 12 36  1  0  0  0
 12 37  1  0  0  0
 13 38  1  0  0  0
 13 51  1  0  0  0
 14 19  2  0  0  0
 14 15  1  0  0  0
 15 18  2  0  0  0
 15 39  1  0  0  0
 16 17  2  0  0  0
 16 18  1  0  0  0
 16 40  1  0  0  0
 17 19  1  0  0  0
 18 41  1  0  0  0
 19 42  1  0  0  0
 20 21  1  0  0  0
 20 22  1  0  0  0
 20 43  1  0  0  0
 21 23  2  0  0  0
 21 27  1  0  0  0
 22 29  2  0  0  0
 22 30  1  0  0  0
 23 24  1  0  0  0
 23 44  1  0  0  0
 24 25  2  0  0  0
 24 45  1  0  0  0
 25 26  1  0  0  0
 25 28  1  0  0  0
 26 27  2  0  0  0
 26 46  1  0  0  0
 27 47  1  0  0  0
 30 31  1  0  0  0
 31 48  1  0  0  0
 31 49  1  0  0  0
 31 50  1  0  0  0
M  CHG  1  13   1
M  END
> <chembl_id>
CHEMBL603867

> <chembl_pref_name>
None

> <s_m_source_file>
sdf/actives_sanitized.sdf

> <i_m_source_file_index>
37

> <i_lp_mmshare_version>
49012

> <i_m_ct_stereo_status>
1

> <i_f3d_flags>
0

> <s_epik_input>
W2NIXTFbY0hdYyhDbClbY0hdW2NIXWMxW0NASF0oQyg9TylPW0NIM10pT2MoW2NIXTIpW2NIXVtjSF1bY0hdYzItYyhbY0hdMylbY0hdW2NIXWMoYzM0KXNjKFtjSF00KS9DKFtOSDJdKT1OL1tIXQ==

> <s_epik_cmdline>
J2VwaWtfcHl0aG9uJywgJy1waHQnLCAnMC41JywgJy1waCcsICc3LjUnLCAnLW50JywgJy1tYScsICcyMDAnLCAnLWltYWUnLCAnPGluZmlsZS5tYWU+JywgJy1vbWFlJywgJzxvdXRmaWxlLm1hZT4n

> <r_lp_tautomer_probability>
1

> <r_epik_Ionization_Penalty>
  0.0095

> <r_epik_Ionization_Penalty_Charging>
  0.0095

> <r_epik_Ionization_Penalty_Neutral>
  0.0000

> <r_epik_State_Penalty>
 -0.0000

> <r_epik_Charging_Adjusted_Penalty>
0.00945881282357717

> <i_epik_Tot_Q>
1

> <i_epik_Tot_abs_Q>
1

> <s_epik_Chemistry_Notes>
This compound has an ester and may undergo hydrolysis at high or low pH. This compound has an imine and may undergo hydrolysis.

> <s_lp_Force_Field>
OPLS3e

> <r_lp_Energy>
39.330516

> <b_lp_Chiralities_Consistent>
1

> <s_lp_Variant>
sdf/actives_sanitized.sdf:37-1

$$$$
sdf/actives_sanitized.sdf:38
                    3D
 Schrodinger Suite 2020-1.
 51 54  0  0  1  0            999 V2000
    0.0325    0.1403   -0.1386 O   0  0  0  0  0  0
    4.3245    2.6623    0.1376 C   0  0  0  0  0  0
    5.4147    2.7743    1.0056 C   0  0  0  0  0  0
    6.1521    3.9495    1.1155 C   0  0  0  0  0  0
    3.9594    3.7619   -0.6510 C   0  0  0  0  0  0
    4.6767    4.9678   -0.5716 C   0  0  0  0  0  0
    5.7778    5.0428    0.3250 C   0  0  0  0  0  0
    6.5358    6.6252    0.2814 S   0  0  0  0  0  0
    5.3923    7.1806   -0.9358 C   0  0  0  0  0  0
    4.4792    6.1909   -1.2706 C   0  0  0  0  0  0
    5.4479    8.4697   -1.4325 C   0  0  0  0  0  0
    6.6289    9.0521   -1.5963 N   0  0  0  0  0  0
    4.3111    9.0814   -1.7403 N   0  3  0  0  0  0
    3.5555    1.3881    0.0538 C   0  0  0  0  0  0
    4.2130    0.1514    0.0230 C   0  0  0  0  0  0
    2.1009   -1.0068   -0.1085 C   0  0  0  0  0  0
    1.4139    0.2074   -0.0813 C   0  0  0  0  0  0
    3.4923   -1.0381   -0.0569 C   0  0  0  0  0  0
    2.1542    1.3989    0.0040 C   0  0  0  0  0  0
   -0.7586    1.3355   -0.1716 C   0  0  2  0  0  0
   -2.1979    0.9651    0.1906 C   0  0  0  0  0  0
   -0.7329    2.0104   -1.5619 C   0  0  0  0  0  0
   -2.7931    1.5498    1.3124 C   0  0  0  0  0  0
   -4.0995    1.2185    1.6628 C   0  0  0  0  0  0
   -4.8089    0.2964    0.8962 C   0  0  0  0  0  0
   -4.2208   -0.3007   -0.2166 C   0  0  0  0  0  0
   -2.9149    0.0302   -0.5681 C   0  0  0  0  0  0
   -6.0781   -0.0232    1.2364 F   0  0  0  0  0  0
   -0.3232    1.4221   -2.5659 O   0  0  0  0  0  0
   -1.1880    3.2811   -1.5208 O   0  0  0  0  0  0
   -1.2426    4.0656   -2.7032 C   0  0  0  0  0  0
    5.6975    1.9323    1.6209 H   0  0  0  0  0  0
    6.9883    4.0114    1.7968 H   0  0  0  0  0  0
    3.1228    3.6807   -1.3299 H   0  0  0  0  0  0
    3.6925    6.3309   -1.9972 H   0  0  0  0  0  0
    6.6810    9.9942   -1.9547 H   0  0  0  0  0  0
    7.4716    8.5495   -1.3580 H   0  0  0  0  0  0
    4.3281   10.0232   -2.1031 H   0  0  0  0  0  0
    5.2921    0.1055    0.0539 H   0  0  0  0  0  0
    1.5502   -1.9341   -0.1728 H   0  0  0  0  0  0
    4.0126   -1.9842   -0.0816 H   0  0  0  0  0  0
    1.6487    2.3518    0.0349 H   0  0  0  0  0  0
   -0.3897    2.0385    0.5764 H   0  0  0  0  0  0
   -2.2478    2.2642    1.9121 H   0  0  0  0  0  0
   -4.5609    1.6748    2.5263 H   0  0  0  0  0  0
   -4.7743   -1.0187   -0.8037 H   0  0  0  0  0  0
   -2.4599   -0.4388   -1.4288 H   0  0  0  0  0  0
   -1.6442    5.0526   -2.4738 H   0  0  0  0  0  0
   -1.8880    3.6026   -3.4512 H   0  0  0  0  0  0
   -0.2486    4.1942   -3.1345 H   0  0  0  0  0  0
    3.4325    8.6049   -1.5992 H   0  0  0  0  0  0
  1 17  1  0  0  0
  1 20  1  0  0  0
  2  3  2  0  0  0
  2  5  1  0  0  0
  2 14  1  0  0  0
  3  4  1  0  0  0
  3 32  1  0  0  0
  4  7  2  0  0  0
  4 33  1  0  0  0
  5  6  2  0  0  0
  5 34  1  0  0  0
  6 10  1  0  0  0
  6  7  1  0  0  0
  7  8  1  0  0  0
  8  9  1  0  0  0
  9 10  2  0  0  0
  9 11  1  0  0  0
 10 35  1  0  0  0
 11 12  1  0  0  0
 11 13  2  0  0  0
 12 36  1  0  0  0
 12 37  1  0  0  0
 13 38  1  0  0  0
 13 51  1  0  0  0
 14 19  2  0  0  0
 14 15  1  0  0  0
 15 18  2  0  0  0
 15 39  1  0  0  0
 16 17  2  0  0  0
 16 18  1  0  0  0
 16 40  1  0  0  0
 17 19  1  0  0  0
 18 41  1  0  0  0
 19 42  1  0  0  0
 20 21  1  0  0  0
 20 22  1  0  0  0
 20 43  1  0  0  0
 21 23  2  0  0  0
 21 27  1  0  0  0
 22 29  2  0  0  0
 22 30  1  0  0  0
 23 24  1  0  0  0
 23 44  1  0  0  0
 24 25  2  0  0  0
 24 45  1  0  0  0
 25 26  1  0  0  0
 25 28  1  0  0  0
 26 27  2  0  0  0
 26 46  1  0  0  0
 27 47  1  0  0  0
 30 31  1  0  0  0
 31 48  1  0  0  0
 31 49  1  0  0  0
 31 50  1  0  0  0
M  CHG  1  13   1
M  END
> <chembl_id>
CHEMBL597755

> <chembl_pref_name>
None

> <s_m_source_file>
sdf/actives_sanitized.sdf

> <i_m_source_file_index>
38

> <i_lp_mmshare_version>
49012

> <i_m_ct_stereo_status>
1

> <i_f3d_flags>
0

> <s_epik_input>
W2NIXTFbY0hdYyhGKVtjSF1bY0hdYzFbQ0BIXShDKD1PKU9bQ0gzXSlPYyhbY0hdMilbY0hdW2NIXVtjSF1jMi1jKFtjSF0zKVtjSF1bY0hdYyhjMzQpc2MoW2NIXTQpL0MoW05IMl0pPU4vW0hd

> <s_epik_cmdline>
J2VwaWtfcHl0aG9uJywgJy1waHQnLCAnMC41JywgJy1waCcsICc3LjUnLCAnLW50JywgJy1tYScsICcyMDAnLCAnLWltYWUnLCAnPGluZmlsZS5tYWU+JywgJy1vbWFlJywgJzxvdXRmaWxlLm1hZT4n

> <r_lp_tautomer_probability>
1

> <r_epik_Ionization_Penalty>
  0.0095

> <r_epik_Ionization_Penalty_Charging>
  0.0095

> <r_epik_Ionization_Penalty_Neutral>
  0.0000

> <r_epik_State_Penalty>
 -0.0000

> <r_epik_Charging_Adjusted_Penalty>
0.00945881282357717

> <i_epik_Tot_Q>
1

> <i_epik_Tot_abs_Q>
1

> <s_epik_Chemistry_Notes>
This compound has an ester and may undergo hydrolysis at high or low pH. This compound has an imine and may undergo hydrolysis.

> <s_lp_Force_Field>
OPLS3e

> <r_lp_Energy>
39.290165

> <b_lp_Chiralities_Consistent>
1

> <s_lp_Variant>
sdf/actives_sanitized.sdf:38-1

$$$$
sdf/actives_sanitized.sdf:39
                    3D
 Schrodinger Suite 2020-1.
 57 61  0  0  1  0            999 V2000
   -0.5232   -0.6641   -1.3464 C   0  0  0  0  0  0
   -0.0539    0.0533   -0.0766 C   0  0  1  0  0  0
    1.4676   -0.0791    0.2134 C   0  0  0  0  0  0
    1.9567   -1.4612    0.2161 N   0  0  0  0  0  0
    2.7432   -2.0153   -0.7239 C   0  0  0  0  0  0
    3.1256   -3.4453   -0.4572 C   0  0  0  0  0  0
    3.1456   -1.4378   -1.7341 O   0  0  0  0  0  0
   -0.5497    1.5029   -0.0200 C   0  0  0  0  0  0
    0.0839    2.5169   -0.7523 C   0  0  0  0  0  0
   -0.3751    3.8326   -0.6843 C   0  0  0  0  0  0
   -1.4710    4.1491    0.1176 C   0  0  0  0  0  0
   -2.1092    3.1492    0.8501 C   0  0  0  0  0  0
   -1.6506    1.8332    0.7814 C   0  0  0  0  0  0
    4.2571   -3.7477    0.3251 C   0  0  0  0  0  0
    4.6109   -5.0769    0.5604 C   0  0  0  0  0  0
    3.8561   -6.1273    0.0270 C   0  0  0  0  0  0
    2.7318   -5.8240   -0.7514 C   0  0  0  0  0  0
    2.3651   -4.5007   -0.9965 C   0  0  0  0  0  0
    0.9622   -4.2268   -1.9782 Cl  0  0  0  0  0  0
    4.2319   -7.4724    0.2728 N   0  0  0  0  0  0
    5.0707   -7.9882    1.2299 C   0  0  0  0  0  0
    5.1600   -9.2879    1.1204 N   0  0  0  0  0  0
    4.3604   -9.5388    0.0959 C   0  0  0  0  0  0
    3.7766   -8.4989   -0.4624 N   0  0  0  0  0  0
    5.2575   -2.5146    1.0245 Cl  0  0  0  0  0  0
    4.1544  -10.9432   -0.4259 C   0  0  0  0  0  0
   -3.1721    3.4551    1.6281 F   0  0  0  0  0  0
   -1.5670   -1.5964   -1.2861 C   0  0  0  0  0  0
   -2.0448   -2.3010   -2.3460 N   0  0  0  0  0  0
    0.0968   -0.4289   -2.5815 C   0  0  0  0  0  0
   -0.3586   -1.1412   -3.7023 C   0  0  0  0  0  0
   -1.4284   -2.0531   -3.5050 C   0  0  0  0  0  0
   -1.7000   -2.6335   -4.7239 N   0  0  0  0  0  0
   -0.8548   -2.1356   -5.6901 C   0  0  0  0  0  0
   -0.0144   -1.2100   -5.0907 C   0  0  0  0  0  0
   -0.9497   -2.6189   -7.1168 C   0  0  0  0  0  0
   -0.5288   -0.4512    0.7681 H   0  0  0  0  0  0
    2.0458    0.5298   -0.4839 H   0  0  0  0  0  0
    1.6831    0.3375    1.1983 H   0  0  0  0  0  0
    1.7178   -2.0152    1.0255 H   0  0  0  0  0  0
    0.9310    2.2931   -1.3835 H   0  0  0  0  0  0
    0.1186    4.6063   -1.2536 H   0  0  0  0  0  0
   -1.8259    5.1678    0.1698 H   0  0  0  0  0  0
   -2.1568    1.0699    1.3545 H   0  0  0  0  0  0
    5.4883   -5.2791    1.1571 H   0  0  0  0  0  0
    2.1295   -6.6156   -1.1742 H   0  0  0  0  0  0
    5.5616   -7.3576    1.9559 H   0  0  0  0  0  0
    3.7129  -10.9800   -1.4227 H   0  0  0  0  0  0
    3.5878  -11.5641    0.2684 H   0  0  0  0  0  0
    5.1158  -11.4495   -0.5190 H   0  0  0  0  0  0
   -2.0582   -1.8013   -0.3460 H   0  0  0  0  0  0
    0.9130    0.2724   -2.6706 H   0  0  0  0  0  0
   -2.4028   -3.3291   -4.9275 H   0  0  0  0  0  0
    0.7582   -0.6553   -5.6023 H   0  0  0  0  0  0
   -0.2312   -2.1159   -7.7642 H   0  0  0  0  0  0
   -1.9396   -2.4408   -7.5378 H   0  0  0  0  0  0
   -0.7554   -3.6891   -7.1923 H   0  0  0  0  0  0
  1  2  1  0  0  0
  1 28  2  0  0  0
  1 30  1  0  0  0
  2  3  1  0  0  0
  2  8  1  0  0  0
  2 37  1  0  0  0
  3  4  1  0  0  0
  3 38  1  0  0  0
  3 39  1  0  0  0
  4  5  1  0  0  0
  4 40  1  0  0  0
  5  6  1  0  0  0
  5  7  2  0  0  0
  6 14  2  0  0  0
  6 18  1  0  0  0
  8  9  2  0  0  0
  8 13  1  0  0  0
  9 10  1  0  0  0
  9 41  1  0  0  0
 10 11  2  0  0  0
 10 42  1  0  0  0
 11 12  1  0  0  0
 11 43  1  0  0  0
 12 13  2  0  0  0
 12 27  1  0  0  0
 13 44  1  0  0  0
 14 15  1  0  0  0
 14 25  1  0  0  0
 15 16  2  0  0  0
 15 45  1  0  0  0
 16 17  1  0  0  0
 16 20  1  0  0  0
 17 18  2  0  0  0
 17 46  1  0  0  0
 18 19  1  0  0  0
 20 21  1  0  0  0
 20 24  1  0  0  0
 21 22  2  0  0  0
 21 47  1  0  0  0
 22 23  1  0  0  0
 23 24  2  0  0  0
 23 26  1  0  0  0
 26 48  1  0  0  0
 26 49  1  0  0  0
 26 50  1  0  0  0
 28 29  1  0  0  0
 28 51  1  0  0  0
 29 32  2  0  0  0
 30 31  2  0  0  0
 30 52  1  0  0  0
 31 32  1  0  0  0
 31 35  1  0  0  0
 32 33  1  0  0  0
 33 34  1  0  0  0
 33 53  1  0  0  0
 34 35  2  0  0  0
 34 36  1  0  0  0
 35 54  1  0  0  0
 36 55  1  0  0  0
 36 56  1  0  0  0
 36 57  1  0  0  0
M  END
> <chembl_id>
CHEMBL3627898

> <chembl_pref_name>
None

> <i_m_ct_stereo_status>
1

> <s_m_source_file>
sdf/actives_sanitized.sdf

> <i_m_source_file_index>
39

> <i_lp_mmshare_version>
49012

> <i_f3d_flags>
0

> <s_epik_input>
W2NIXTFjKFtDSDNdKVtuSF1jKGMxMiluW2NIXWMoW2NIXTIpW0NASF0oYzNbY0hdW2NIXVtjSF1jKEYpW2NIXTMpW0NIMl1bTkhdQyg9TyljNGMoQ2wpW2NIXWMoW2NIXWM0Q2wpLW41W2NIXW5jKG41KVtDSDNd

> <s_epik_cmdline>
J2VwaWtfcHl0aG9uJywgJy1waHQnLCAnMC41JywgJy1waCcsICc3LjUnLCAnLW50JywgJy1tYScsICcyMDAnLCAnLWltYWUnLCAnPGluZmlsZS5tYWU+JywgJy1vbWFlJywgJzxvdXRmaWxlLm1hZT4n

> <r_lp_tautomer_probability>
1

> <r_epik_Ionization_Penalty>
  0.0010

> <r_epik_Ionization_Penalty_Charging>
  0.0000

> <r_epik_Ionization_Penalty_Neutral>
  0.0010

> <r_epik_State_Penalty>
 -0.0000

> <r_epik_Charging_Adjusted_Penalty>
0

> <i_epik_Tot_Q>
0

> <i_epik_Tot_abs_Q>
0

> <s_lp_Force_Field>
OPLS3e

> <r_lp_Energy>
33.949326

> <b_lp_Chiralities_Consistent>
1

> <s_lp_Variant>
sdf/actives_sanitized.sdf:39-1

$$$$
sdf/actives_sanitized.sdf:40
                    3D
 Schrodinger Suite 2020-1.
 61 65  0  0  1  0            999 V2000
   -1.3797   -2.7125   -5.2931 C   0  0  0  0  0  0
   -2.3472   -3.3871   -4.5229 C   0  0  0  0  0  0
   -2.4716   -3.1608   -3.1451 C   0  0  0  0  0  0
   -0.5077   -1.7917   -4.7006 C   0  0  0  0  0  0
   -1.2529   -2.9652   -6.7903 C   0  0  0  0  0  0
   -3.2941   -4.3898   -5.1705 C   0  0  0  0  0  0
   -0.6138   -1.5545   -3.3249 C   0  0  0  0  0  0
   -1.5926   -2.2413   -2.5705 C   0  0  0  0  0  0
   -1.4113   -1.7699   -1.2911 N   0  0  0  0  0  0
   -0.3706   -0.8695   -1.3257 C   0  0  0  0  0  0
    0.1205   -0.7108   -2.5333 N   0  0  0  0  0  0
    0.0957   -0.1254   -0.0778 C   0  0  1  0  0  0
    1.6331    0.1069   -0.0721 C   0  0  0  0  0  0
    2.1468    0.8488    1.0808 N   0  0  0  0  0  0
    2.2228    0.3744    2.3363 C   0  0  0  0  0  0
    2.7833    1.3463    3.3391 C   0  0  0  0  0  0
    1.8675   -0.7528    2.6816 O   0  0  0  0  0  0
   -0.6915    1.1699    0.1575 C   0  0  0  0  0  0
   -1.3091    1.3939    1.3931 C   0  0  0  0  0  0
   -2.0087    2.5755    1.6220 C   0  0  0  0  0  0
   -2.0887    3.5356    0.6164 C   0  0  0  0  0  0
   -1.4740    3.3256   -0.6156 C   0  0  0  0  0  0
   -0.7742    2.1441   -0.8446 C   0  0  0  0  0  0
    1.9139    2.0156    4.2245 C   0  0  0  0  0  0
    2.4563    2.9112    5.1628 C   0  0  0  0  0  0
    3.8338    3.1362    5.2334 C   0  0  0  0  0  0
    4.6847    2.4602    4.3574 C   0  0  0  0  0  0
    4.1723    1.5695    3.4165 C   0  0  0  0  0  0
    5.3035    0.7673    2.3734 Cl  0  0  0  0  0  0
    4.3621    4.0356    6.1838 N   0  0  0  0  0  0
    3.7807    5.1600    6.7277 C   0  0  0  0  0  0
    4.5691    5.7582    7.5854 N   0  0  0  0  0  0
    5.7429    5.0131    7.6373 N   0  0  0  0  0  0
    5.5915    4.0131    6.8054 C   0  0  0  0  0  0
    0.5540    1.7612    4.1265 O   0  0  0  0  0  0
   -0.3562    2.4148    5.0046 C   0  0  0  0  0  0
   -3.2138   -3.6763   -2.5530 H   0  0  0  0  0  0
    0.2349   -1.2732   -5.2897 H   0  0  0  0  0  0
   -0.4678   -2.3627   -7.2495 H   0  0  0  0  0  0
   -2.1911   -2.7339   -7.2953 H   0  0  0  0  0  0
   -1.0276   -4.0150   -6.9797 H   0  0  0  0  0  0
   -4.0180   -4.7965   -4.4632 H   0  0  0  0  0  0
   -2.7319   -5.2203   -5.5981 H   0  0  0  0  0  0
   -3.8515   -3.9182   -5.9803 H   0  0  0  0  0  0
   -1.9140   -2.0082   -0.4484 H   0  0  0  0  0  0
   -0.1081   -0.7761    0.7749 H   0  0  0  0  0  0
    2.1591   -0.8465   -0.1552 H   0  0  0  0  0  0
    1.9195    0.6772   -0.9568 H   0  0  0  0  0  0
    2.4638    1.7904    0.9014 H   0  0  0  0  0  0
   -1.2440    0.6571    2.1807 H   0  0  0  0  0  0
   -2.4852    2.7477    2.5758 H   0  0  0  0  0  0
   -2.6304    4.4529    0.7947 H   0  0  0  0  0  0
   -1.5379    4.0768   -1.3890 H   0  0  0  0  0  0
   -0.2935    1.9903   -1.7998 H   0  0  0  0  0  0
    1.8112    3.4331    5.8530 H   0  0  0  0  0  0
    5.7519    2.6252    4.3964 H   0  0  0  0  0  0
    2.7885    5.4704    6.4344 H   0  0  0  0  0  0
    6.3051    3.2291    6.5982 H   0  0  0  0  0  0
   -1.3697    2.0797    4.7847 H   0  0  0  0  0  0
   -0.3313    3.4974    4.8722 H   0  0  0  0  0  0
   -0.1501    2.1736    6.0484 H   0  0  0  0  0  0
  1  2  2  0  0  0
  1  4  1  0  0  0
  1  5  1  0  0  0
  2  3  1  0  0  0
  2  6  1  0  0  0
  3  8  2  0  0  0
  3 37  1  0  0  0
  4  7  2  0  0  0
  4 38  1  0  0  0
  5 39  1  0  0  0
  5 40  1  0  0  0
  5 41  1  0  0  0
  6 42  1  0  0  0
  6 43  1  0  0  0
  6 44  1  0  0  0
  7  8  1  0  0  0
  7 11  1  0  0  0
  8  9  1  0  0  0
  9 10  1  0  0  0
  9 45  1  0  0  0
 10 11  2  0  0  0
 10 12  1  0  0  0
 12 13  1  0  0  0
 12 18  1  0  0  0
 12 46  1  0  0  0
 13 14  1  0  0  0
 13 47  1  0  0  0
 13 48  1  0  0  0
 14 15  1  0  0  0
 14 49  1  0  0  0
 15 16  1  0  0  0
 15 17  2  0  0  0
 16 24  2  0  0  0
 16 28  1  0  0  0
 18 19  2  0  0  0
 18 23  1  0  0  0
 19 20  1  0  0  0
 19 50  1  0  0  0
 20 21  2  0  0  0
 20 51  1  0  0  0
 21 22  1  0  0  0
 21 52  1  0  0  0
 22 23  2  0  0  0
 22 53  1  0  0  0
 23 54  1  0  0  0
 24 25  1  0  0  0
 24 35  1  0  0  0
 25 26  2  0  0  0
 25 55  1  0  0  0
 26 27  1  0  0  0
 26 30  1  0  0  0
 27 28  2  0  0  0
 27 56  1  0  0  0
 28 29  1  0  0  0
 30 31  1  0  0  0
 30 34  1  0  0  0
 31 32  2  0  0  0
 31 57  1  0  0  0
 32 33  1  0  0  0
 33 34  2  0  0  0
 34 58  1  0  0  0
 35 36  1  0  0  0
 36 59  1  0  0  0
 36 60  1  0  0  0
 36 61  1  0  0  0
M  END
> <chembl_id>
CHEMBL3627868

> <chembl_pref_name>
None

> <i_m_ct_stereo_status>
1

> <s_m_source_file>
sdf/actives_sanitized.sdf

> <i_m_source_file_index>
40

> <i_lp_mmshare_version>
49012

> <i_f3d_flags>
0

> <s_epik_input>
W2NIXTFjKFtDSDNdKWMoW0NIM10pW2NIXWMoYzEyKVtuSF1jKG4yKVtDQEhdKGMzW2NIXVtjSF1bY0hdW2NIXVtjSF0zKVtDSDJdW05IXUMoPU8pYzRjKE9bQ0gzXSlbY0hdYyhbY0hdYzRDbCktbjVbY0hdbm5bY0hdNQ==

> <s_epik_cmdline>
J2VwaWtfcHl0aG9uJywgJy1waHQnLCAnMC41JywgJy1waCcsICc3LjUnLCAnLW50JywgJy1tYScsICcyMDAnLCAnLWltYWUnLCAnPGluZmlsZS5tYWU+JywgJy1vbWFlJywgJzxvdXRmaWxlLm1hZT4n

> <r_lp_tautomer_probability>
1

> <r_epik_Ionization_Penalty>
  0.0167

> <r_epik_Ionization_Penalty_Charging>
  0.0000

> <r_epik_Ionization_Penalty_Neutral>
  0.0167

> <r_epik_State_Penalty>
  0.0132

> <r_epik_Charging_Adjusted_Penalty>
0.013171618342122

> <i_epik_Tot_Q>
0

> <i_epik_Tot_abs_Q>
0

> <s_lp_Force_Field>
OPLS3e

> <r_lp_Energy>
37.166099

> <b_lp_Chiralities_Consistent>
1

> <s_lp_Variant>
sdf/actives_sanitized.sdf:40-1

$$$$
sdf/actives_sanitized.sdf:41
                    3D
 Schrodinger Suite 2020-1.
 60 64  0  0  1  0            999 V2000
   -2.1143   -2.9153   -4.9598 C   0  0  0  0  0  0
   -3.1581   -3.2293   -4.0676 C   0  0  0  0  0  0
   -3.1554   -2.7597   -2.7469 C   0  0  0  0  0  0
   -1.0377   -2.1195   -4.5513 C   0  0  0  0  0  0
   -2.1275   -3.4303   -6.3934 C   0  0  0  0  0  0
   -4.3276   -4.0975   -4.5147 C   0  0  0  0  0  0
   -1.0155   -1.6429   -3.2352 C   0  0  0  0  0  0
   -2.0728   -1.9707   -2.3558 C   0  0  0  0  0  0
   -1.7245   -1.3515   -1.1786 N   0  0  0  0  0  0
   -0.5201   -0.7184   -1.3856 C   0  0  0  0  0  0
   -0.0779   -0.8608   -2.6139 N   0  0  0  0  0  0
    0.1755    0.0731   -0.2780 C   0  0  1  0  0  0
    1.7252    0.0480   -0.3848 C   0  0  0  0  0  0
    2.3112   -1.2933   -0.4122 N   0  0  0  0  0  0
    2.3581   -2.1443    0.6273 C   0  0  0  0  0  0
    2.9586   -3.4883    0.3063 C   0  0  0  0  0  0
    1.9429   -1.8913    1.7585 O   0  0  0  0  0  0
   -0.3375    1.5121   -0.1655 C   0  0  0  0  0  0
   -0.6243    2.0459    1.0959 C   0  0  0  0  0  0
   -1.0785    3.3567    1.2152 C   0  0  0  0  0  0
   -1.2417    4.1372    0.0734 C   0  0  0  0  0  0
   -0.9505    3.6201   -1.1865 C   0  0  0  0  0  0
   -0.4954    2.3099   -1.3060 C   0  0  0  0  0  0
    4.2959   -3.7946    0.6628 C   0  0  0  0  0  0
    4.8051   -5.0656    0.3572 C   0  0  0  0  0  0
    4.0226   -6.0261   -0.2882 C   0  0  0  0  0  0
    2.7062   -5.7174   -0.6307 C   0  0  0  0  0  0
    2.1706   -4.4656   -0.3369 C   0  0  0  0  0  0
    0.5195   -4.1840   -0.7923 Cl  0  0  0  0  0  0
    4.5566   -7.2968   -0.5927 N   0  0  0  0  0  0
    5.5480   -7.9983    0.0581 C   0  0  0  0  0  0
    5.7889   -9.1542   -0.5082 N   0  0  0  0  0  0
    4.9281   -9.2541   -1.5963 N   0  0  0  0  0  0
    4.2196   -8.1532   -1.6183 C   0  0  0  0  0  0
    5.2161   -2.7795    1.3695 C   0  0  0  0  0  0
    6.4591   -3.2393    1.5285 F   0  0  0  0  0  0
    5.3036   -1.6507    0.6647 F   0  0  0  0  0  0
    4.7415   -2.5077    2.5853 F   0  0  0  0  0  0
   -3.9544   -2.9997   -2.0605 H   0  0  0  0  0  0
   -0.2366   -1.8776   -5.2343 H   0  0  0  0  0  0
   -1.2773   -3.0688   -6.9734 H   0  0  0  0  0  0
   -3.0372   -3.1113   -6.9028 H   0  0  0  0  0  0
   -2.1089   -4.5204   -6.4048 H   0  0  0  0  0  0
   -5.0493   -4.2687   -3.7149 H   0  0  0  0  0  0
   -3.9701   -5.0687   -4.8577 H   0  0  0  0  0  0
   -4.8522   -3.6282   -5.3473 H   0  0  0  0  0  0
   -2.2148   -1.3416   -0.2960 H   0  0  0  0  0  0
   -0.0734   -0.4240    0.6617 H   0  0  0  0  0  0
    2.0378    0.5518   -1.3006 H   0  0  0  0  0  0
    2.1718    0.6174    0.4331 H   0  0  0  0  0  0
    2.6874   -1.5956   -1.2991 H   0  0  0  0  0  0
   -0.4960    1.4477    1.9864 H   0  0  0  0  0  0
   -1.3017    3.7672    2.1891 H   0  0  0  0  0  0
   -1.5940    5.1540    0.1658 H   0  0  0  0  0  0
   -1.0746    4.2332   -2.0669 H   0  0  0  0  0  0
   -0.2648    1.9201   -2.2866 H   0  0  0  0  0  0
    5.8252   -5.3107    0.6146 H   0  0  0  0  0  0
    2.0829   -6.4516   -1.1205 H   0  0  0  0  0  0
    6.0299   -7.5957    0.9367 H   0  0  0  0  0  0
    3.4564   -7.8896   -2.3356 H   0  0  0  0  0  0
  1  2  2  0  0  0
  1  4  1  0  0  0
  1  5  1  0  0  0
  2  3  1  0  0  0
  2  6  1  0  0  0
  3  8  2  0  0  0
  3 39  1  0  0  0
  4  7  2  0  0  0
  4 40  1  0  0  0
  5 41  1  0  0  0
  5 42  1  0  0  0
  5 43  1  0  0  0
  6 44  1  0  0  0
  6 45  1  0  0  0
  6 46  1  0  0  0
  7  8  1  0  0  0
  7 11  1  0  0  0
  8  9  1  0  0  0
  9 10  1  0  0  0
  9 47  1  0  0  0
 10 11  2  0  0  0
 10 12  1  0  0  0
 12 13  1  0  0  0
 12 18  1  0  0  0
 12 48  1  0  0  0
 13 14  1  0  0  0
 13 49  1  0  0  0
 13 50  1  0  0  0
 14 15  1  0  0  0
 14 51  1  0  0  0
 15 16  1  0  0  0
 15 17  2  0  0  0
 16 24  2  0  0  0
 16 28  1  0  0  0
 18 19  2  0  0  0
 18 23  1  0  0  0
 19 20  1  0  0  0
 19 52  1  0  0  0
 20 21  2  0  0  0
 20 53  1  0  0  0
 21 22  1  0  0  0
 21 54  1  0  0  0
 22 23  2  0  0  0
 22 55  1  0  0  0
 23 56  1  0  0  0
 24 25  1  0  0  0
 24 35  1  0  0  0
 25 26  2  0  0  0
 25 57  1  0  0  0
 26 27  1  0  0  0
 26 30  1  0  0  0
 27 28  2  0  0  0
 27 58  1  0  0  0
 28 29  1  0  0  0
 30 31  1  0  0  0
 30 34  1  0  0  0
 31 32  2  0  0  0
 31 59  1  0  0  0
 32 33  1  0  0  0
 33 34  2  0  0  0
 34 60  1  0  0  0
 35 36  1  0  0  0
 35 37  1  0  0  0
 35 38  1  0  0  0
M  END
> <chembl_id>
CHEMBL3627867

> <chembl_pref_name>
None

> <i_m_ct_stereo_status>
1

> <s_m_source_file>
sdf/actives_sanitized.sdf

> <i_m_source_file_index>
41

> <i_lp_mmshare_version>
49012

> <i_f3d_flags>
0

> <s_epik_input>
W2NIXTFjKFtDSDNdKWMoW0NIM10pW2NIXWMoYzEyKVtuSF1jKG4yKVtDQEhdKGMzW2NIXVtjSF1bY0hdW2NIXVtjSF0zKVtDSDJdW05IXUMoPU8pYzRjKEMoRikoRilGKVtjSF1jKFtjSF1jNENsKS1uNVtjSF1ubltjSF01

> <s_epik_cmdline>
J2VwaWtfcHl0aG9uJywgJy1waHQnLCAnMC41JywgJy1waCcsICc3LjUnLCAnLW50JywgJy1tYScsICcyMDAnLCAnLWltYWUnLCAnPGluZmlsZS5tYWU+JywgJy1vbWFlJywgJzxvdXRmaWxlLm1hZT4n

> <r_lp_tautomer_probability>
1

> <r_epik_Ionization_Penalty>
  0.0169

> <r_epik_Ionization_Penalty_Charging>
  0.0000

> <r_epik_Ionization_Penalty_Neutral>
  0.0169

> <r_epik_State_Penalty>
  0.0132

> <r_epik_Charging_Adjusted_Penalty>
0.013171618342122

> <i_epik_Tot_Q>
0

> <i_epik_Tot_abs_Q>
0

> <s_lp_Force_Field>
OPLS3e

> <r_lp_Energy>
40.034575

> <b_lp_Chiralities_Consistent>
1

> <s_lp_Variant>
sdf/actives_sanitized.sdf:41-1

$$$$
sdf/actives_sanitized.sdf:42
                    3D
 Schrodinger Suite 2020-1.
 55 59  0  0  1  0            999 V2000
    0.2437    0.1559    0.3078 C   0  0  0  0  0  0
   -0.6256    1.1994   -0.0069 N   0  0  0  0  0  0
    7.6438   -2.5561   -0.3847 N   0  0  0  0  0  0
   -1.9029    0.8462    0.2535 N   0  0  0  0  0  0
    1.6860    0.1999    0.4045 C   0  0  0  0  0  0
    8.1145   -3.5474   -1.2253 C   0  0  0  0  0  0
   -0.5941   -0.9040    0.6387 C   0  0  0  0  0  0
    9.4036   -3.7500   -1.1724 N   0  0  0  0  0  0
    8.7680   -2.0761    0.2773 C   0  0  0  0  0  0
   -0.3461    2.5708   -0.2796 C   0  0  0  0  0  0
   -1.8992   -0.4227    0.5813 C   0  0  0  0  0  0
    2.1878    4.6123   -2.2345 C   0  0  0  0  0  0
    2.2752   -0.9590    0.0342 N   0  0  0  0  0  0
    9.8431   -2.8452   -0.2475 C   0  0  0  0  0  0
    6.3024   -2.1183   -0.2942 C   0  0  0  0  0  0
    0.7336    2.9219   -1.1030 C   0  0  0  0  0  0
    1.0455    4.2635   -1.3845 C   0  0  0  0  0  0
    2.8518    5.7364   -1.9934 N   0  3  0  0  0  0
    2.2684    1.2111    0.7968 O   0  0  0  0  0  0
    5.2629   -3.0520   -0.3554 C   0  0  0  0  0  0
    6.0096   -0.7652   -0.0980 C   0  0  0  0  0  0
    3.6433   -1.2805   -0.0506 C   0  0  0  0  0  0
    2.5319    3.7956   -3.2233 N   0  0  0  0  0  0
    3.9410   -2.6315   -0.2418 C   0  0  0  0  0  0
    4.6878   -0.3448    0.0176 C   0  0  0  0  0  0
   -1.1465    3.5922    0.2533 C   0  0  0  0  0  0
    8.9790   -1.0947    1.2574 C   0  0  0  0  0  0
    0.2271    5.2584   -0.8240 C   0  0  0  0  0  0
   -0.8587    4.9268   -0.0168 C   0  0  0  0  0  0
   -3.1968   -1.1388    0.8731 C   0  0  0  0  0  0
   11.1528   -2.6196    0.1998 C   0  0  0  0  0  0
   10.2951   -0.8941    1.6800 C   0  0  0  0  0  0
   11.3585   -1.6341    1.1644 C   0  0  0  0  0  0
    7.4277   -4.0735   -1.8726 H   0  0  0  0  0  0
   -0.2961   -1.8987    0.9376 H   0  0  0  0  0  0
    1.6542   -1.7150   -0.2144 H   0  0  0  0  0  0
    1.3362    2.1352   -1.5346 H   0  0  0  0  0  0
    3.6409    5.9898   -2.5696 H   0  0  0  0  0  0
    5.4695   -4.1041   -0.4882 H   0  0  0  0  0  0
    6.7963   -0.0266   -0.0600 H   0  0  0  0  0  0
    3.3180    4.0229   -3.8145 H   0  0  0  0  0  0
    2.0032    2.9500   -3.3808 H   0  0  0  0  0  0
    3.1504   -3.3665   -0.2986 H   0  0  0  0  0  0
    4.5087    0.7105    0.1437 H   0  0  0  0  0  0
   -1.9894    3.3628    0.8895 H   0  0  0  0  0  0
    8.1728   -0.5158    1.6817 H   0  0  0  0  0  0
    0.4179    6.3054   -1.0152 H   0  0  0  0  0  0
   -1.4779    5.7063    0.4025 H   0  0  0  0  0  0
   -3.0338   -2.1823    1.1443 H   0  0  0  0  0  0
   -3.8628   -1.1340    0.0096 H   0  0  0  0  0  0
   -3.7366   -0.6762    1.6998 H   0  0  0  0  0  0
   11.9827   -3.1906   -0.1900 H   0  0  0  0  0  0
   10.4956   -0.1438    2.4310 H   0  0  0  0  0  0
   12.3597   -1.4427    1.5221 H   0  0  0  0  0  0
    2.5676    6.3305   -1.2280 H   0  0  0  0  0  0
  1  2  1  0  0  0
  1  5  1  0  0  0
  1  7  2  0  0  0
  2  4  1  0  0  0
  2 10  1  0  0  0
  3 15  1  0  0  0
  3  6  1  0  0  0
  3  9  1  0  0  0
  4 11  2  0  0  0
  5 13  1  0  0  0
  5 19  2  0  0  0
  6  8  2  0  0  0
  6 34  1  0  0  0
  7 11  1  0  0  0
  7 35  1  0  0  0
  8 14  1  0  0  0
  9 14  2  0  0  0
  9 27  1  0  0  0
 10 16  2  0  0  0
 10 26  1  0  0  0
 11 30  1  0  0  0
 12 17  1  0  0  0
 12 18  2  0  0  0
 12 23  1  0  0  0
 13 22  1  0  0  0
 13 36  1  0  0  0
 14 31  1  0  0  0
 15 21  2  0  0  0
 15 20  1  0  0  0
 16 17  1  0  0  0
 16 37  1  0  0  0
 17 28  2  0  0  0
 18 38  1  0  0  0
 18 55  1  0  0  0
 20 24  2  0  0  0
 20 39  1  0  0  0
 21 25  1  0  0  0
 21 40  1  0  0  0
 22 24  1  0  0  0
 22 25  2  0  0  0
 23 41  1  0  0  0
 23 42  1  0  0  0
 24 43  1  0  0  0
 25 44  1  0  0  0
 26 29  2  0  0  0
 26 45  1  0  0  0
 27 32  2  0  0  0
 27 46  1  0  0  0
 28 29  1  0  0  0
 28 47  1  0  0  0
 29 48  1  0  0  0
 30 49  1  0  0  0
 30 50  1  0  0  0
 30 51  1  0  0  0
 31 33  2  0  0  0
 31 52  1  0  0  0
 32 33  1  0  0  0
 32 53  1  0  0  0
 33 54  1  0  0  0
M  CHG  1  18   1
M  END
> <chembl_id>
CHEMBL366323

> <chembl_pref_name>
None

> <s_m_source_file>
sdf/actives_sanitized.sdf

> <i_m_source_file_index>
42

> <i_lp_mmshare_version>
49012

> <i_m_ct_stereo_status>
1

> <i_f3d_flags>
0

> <s_epik_input>
W2NIXTFbY0hdW2NIXWMoL0MoPU4vW0hdKVtOSDJdKVtjSF1jMS1uKG5jKFtjSF0yKVtDSDNdKWMyQyg9TylbTkhdYyhbY0hdW2NIXTMpW2NIXVtjSF1jMy1uNFtjSF1uYyhjNDUpW2NIXVtjSF1bY0hdW2NIXTU=

> <s_epik_cmdline>
J2VwaWtfcHl0aG9uJywgJy1waHQnLCAnMC41JywgJy1waCcsICc3LjUnLCAnLW50JywgJy1tYScsICcyMDAnLCAnLWltYWUnLCAnPGluZmlsZS5tYWU+JywgJy1vbWFlJywgJzxvdXRmaWxlLm1hZT4n

> <r_lp_tautomer_probability>
1

> <r_epik_Ionization_Penalty>
  0.0112

> <r_epik_Ionization_Penalty_Charging>
  0.0010

> <r_epik_Ionization_Penalty_Neutral>
  0.0102

> <r_epik_State_Penalty>
  0.0078

> <r_epik_Charging_Adjusted_Penalty>
0.00877873498810205

> <i_epik_Tot_Q>
1

> <i_epik_Tot_abs_Q>
1

> <s_epik_Chemistry_Notes>
This compound has an imine and may undergo hydrolysis.

> <s_lp_Force_Field>
OPLS3e

> <r_lp_Energy>
43.234553

> <b_lp_Chiralities_Consistent>
1

> <s_lp_Variant>
sdf/actives_sanitized.sdf:42-1

$$$$
sdf/actives_sanitized.sdf:43
                    3D
 Schrodinger Suite 2020-1.
 53 56  0  0  1  0            999 V2000
    0.1958    2.5532   -0.2413 C   0  0  0  0  0  0
   -0.4424    3.7723   -0.4398 C   0  0  0  0  0  0
   -1.8291    3.8556   -0.5082 C   0  0  0  0  0  0
   -0.5360    1.3644   -0.1021 C   0  0  0  0  0  0
   -1.9442    1.4129   -0.1659 C   0  0  0  0  0  0
   -2.5734    2.6758   -0.3703 C   0  0  0  0  0  0
   -4.3215    2.5266   -0.4204 S   0  0  0  0  0  0
   -4.2194    0.7902   -0.1594 C   0  0  0  0  0  0
   -2.9032    0.3643   -0.0547 C   0  0  0  0  0  0
   -5.3585    0.0090   -0.0994 C   0  0  0  0  0  0
   -6.4584    0.5068    0.4519 N   0  0  0  0  0  0
   -5.3116   -1.2229   -0.5900 N   0  3  0  0  0  0
   -0.0014    0.1020    0.0902 O   0  0  0  0  0  0
    1.4134   -0.0744    0.2347 C   0  0  2  0  0  0
    1.7135   -1.5762    0.0945 C   0  0  0  0  0  0
    1.9077    0.4620    1.5803 C   0  0  0  0  0  0
    1.1300    0.3160    2.7347 C   0  0  0  0  0  0
    1.5900    0.8102    3.9523 C   0  0  0  0  0  0
    2.8265    1.4489    4.0149 C   0  0  0  0  0  0
    3.6076    1.5974    2.8711 C   0  0  0  0  0  0
    3.1481    1.1033    1.6533 C   0  0  0  0  0  0
    1.4856   -1.9943   -1.2468 O   0  0  0  0  0  0
    1.6602   -3.2804   -1.6077 C   0  0  0  0  0  0
    1.4236   -3.4006   -2.9693 N   0  0  0  0  0  0
    1.9826   -4.1912   -0.8404 O   0  0  0  0  0  0
    1.5244   -4.6031   -3.6720 C   0  0  0  0  0  0
    0.3924   -5.4116   -3.8424 C   0  0  0  0  0  0
    0.4961   -6.6095   -4.5510 C   0  0  0  0  0  0
    1.7211   -7.0012   -5.0916 C   0  0  0  0  0  0
    2.8470   -6.1940   -4.9278 C   0  0  0  0  0  0
    2.7533   -4.9938   -4.2217 C   0  0  0  0  0  0
    3.8555   -4.2205   -4.0755 F   0  0  0  0  0  0
   -0.8051   -5.0454   -3.3266 F   0  0  0  0  0  0
    1.2740    2.5501   -0.1977 H   0  0  0  0  0  0
    0.1497    4.6700   -0.5437 H   0  0  0  0  0  0
   -2.3143    4.8083   -0.6641 H   0  0  0  0  0  0
   -2.6257   -0.6674    0.1040 H   0  0  0  0  0  0
   -7.2967   -0.0533    0.5004 H   0  0  0  0  0  0
   -6.4511    1.4475    0.8183 H   0  0  0  0  0  0
   -6.1320   -1.8100   -0.5550 H   0  0  0  0  0  0
    1.9263    0.4456   -0.5776 H   0  0  0  0  0  0
    1.0935   -2.1512    0.7848 H   0  0  0  0  0  0
    2.7557   -1.7712    0.3537 H   0  0  0  0  0  0
    0.1717   -0.1810    2.6910 H   0  0  0  0  0  0
    0.9915    0.6976    4.8444 H   0  0  0  0  0  0
    3.1837    1.8314    4.9598 H   0  0  0  0  0  0
    4.5656    2.0928    2.9290 H   0  0  0  0  0  0
    3.7570    1.2201    0.7685 H   0  0  0  0  0  0
    1.1707   -2.5683   -3.4813 H   0  0  0  0  0  0
   -0.3740   -7.2361   -4.6821 H   0  0  0  0  0  0
    1.7977   -7.9293   -5.6386 H   0  0  0  0  0  0
    3.7932   -6.4998   -5.3496 H   0  0  0  0  0  0
   -4.4572   -1.5641   -1.0056 H   0  0  0  0  0  0
  1  4  2  0  0  0
  1  2  1  0  0  0
  1 34  1  0  0  0
  2  3  2  0  0  0
  2 35  1  0  0  0
  3  6  1  0  0  0
  3 36  1  0  0  0
  4 13  1  0  0  0
  4  5  1  0  0  0
  5  9  1  0  0  0
  5  6  2  0  0  0
  6  7  1  0  0  0
  7  8  1  0  0  0
  8  9  2  0  0  0
  8 10  1  0  0  0
  9 37  1  0  0  0
 10 11  1  0  0  0
 10 12  2  0  0  0
 11 38  1  0  0  0
 11 39  1  0  0  0
 12 40  1  0  0  0
 12 53  1  0  0  0
 13 14  1  0  0  0
 14 16  1  0  0  0
 14 15  1  0  0  0
 14 41  1  0  0  0
 15 22  1  0  0  0
 15 42  1  0  0  0
 15 43  1  0  0  0
 16 17  2  0  0  0
 16 21  1  0  0  0
 17 18  1  0  0  0
 17 44  1  0  0  0
 18 19  2  0  0  0
 18 45  1  0  0  0
 19 20  1  0  0  0
 19 46  1  0  0  0
 20 21  2  0  0  0
 20 47  1  0  0  0
 21 48  1  0  0  0
 22 23  1  0  0  0
 23 24  1  0  0  0
 23 25  2  0  0  0
 24 26  1  0  0  0
 24 49  1  0  0  0
 26 27  2  0  0  0
 26 31  1  0  0  0
 27 28  1  0  0  0
 27 33  1  0  0  0
 28 29  2  0  0  0
 28 50  1  0  0  0
 29 30  1  0  0  0
 29 51  1  0  0  0
 30 31  2  0  0  0
 30 52  1  0  0  0
 31 32  1  0  0  0
M  CHG  1  12   1
M  END
> <chembl_id>
CHEMBL605564

> <chembl_pref_name>
None

> <s_m_source_file>
sdf/actives_sanitized.sdf

> <i_m_source_file_index>
43

> <i_lp_mmshare_version>
49012

> <i_m_ct_stereo_status>
1

> <i_f3d_flags>
0

> <s_epik_input>
W0hdXE49QyhbTkgyXSlcYyhbY0hdMSlzYyhjMTIpW2NIXVtjSF1bY0hdYzJPW0NAQEhdKGMzW2NIXVtjSF1bY0hdW2NIXVtjSF0zKVtDSDJdT0MoPU8pW05IXWM0YyhGKVtjSF1bY0hdW2NIXWM0Rg==

> <s_epik_cmdline>
J2VwaWtfcHl0aG9uJywgJy1waHQnLCAnMC41JywgJy1waCcsICc3LjUnLCAnLW50JywgJy1tYScsICcyMDAnLCAnLWltYWUnLCAnPGluZmlsZS5tYWU+JywgJy1vbWFlJywgJzxvdXRmaWxlLm1hZT4n

> <r_lp_tautomer_probability>
1

> <r_epik_Ionization_Penalty>
  0.0095

> <r_epik_Ionization_Penalty_Charging>
  0.0095

> <r_epik_Ionization_Penalty_Neutral>
  0.0000

> <r_epik_State_Penalty>
 -0.0000

> <r_epik_Charging_Adjusted_Penalty>
0.00945881282357717

> <i_epik_Tot_Q>
1

> <i_epik_Tot_abs_Q>
1

> <s_epik_Chemistry_Notes>
This compound has an ester and may undergo hydrolysis at high or low pH. This compound has an imine and may undergo hydrolysis.

> <s_lp_Force_Field>
OPLS3e

> <r_lp_Energy>
36.901047

> <b_lp_Chiralities_Consistent>
1

> <s_lp_Variant>
sdf/actives_sanitized.sdf:43-1

$$$$
sdf/actives_sanitized.sdf:44
                    3D
 Schrodinger Suite 2020-1.
 55 58  0  0  1  0            999 V2000
   -2.7440   -0.5677   -0.0859 C   0  0  0  0  0  0
   -4.0689   -0.9896   -0.0817 C   0  0  0  0  0  0
   -4.5809   -1.7436    0.9694 C   0  0  0  0  0  0
   -1.8787   -0.8846    0.9717 C   0  0  0  0  0  0
   -2.3635   -1.6514    2.0511 C   0  0  0  0  0  0
   -3.7254   -2.0721    2.0301 C   0  0  0  0  0  0
   -4.1339   -3.0078    3.4580 S   0  0  0  0  0  0
   -2.4952   -2.8495    4.0777 C   0  0  0  0  0  0
   -1.6946   -2.1044    3.2248 C   0  0  0  0  0  0
   -2.1315   -3.4091    5.2880 C   0  0  0  0  0  0
   -2.6615   -4.5700    5.6519 N   0  0  0  0  0  0
   -1.2518   -2.7669    6.0460 N   0  3  0  0  0  0
   -0.5484   -0.5156    1.0700 O   0  0  0  0  0  0
    0.0591    0.3000    0.0608 C   0  0  2  0  0  0
    1.5789    0.2625    0.2921 C   0  0  0  0  0  0
   -0.4694    1.7361    0.1050 C   0  0  0  0  0  0
   -0.7931    2.3405    1.3252 C   0  0  0  0  0  0
   -1.2811    3.6441    1.3501 C   0  0  0  0  0  0
   -1.4437    4.3428    0.1559 C   0  0  0  0  0  0
   -1.1218    3.7500   -1.0630 C   0  0  0  0  0  0
   -0.6337    2.4463   -1.0882 C   0  0  0  0  0  0
    2.0709   -1.0544    0.0668 O   0  0  0  0  0  0
    3.3648   -1.3571    0.2882 C   0  0  0  0  0  0
    3.5651   -2.6970   -0.0240 N   0  0  0  0  0  0
    4.2122   -0.5553    0.6919 O   0  0  0  0  0  0
    4.8048   -3.3007    0.0694 C   0  0  0  0  0  0
    5.3945   -4.0835   -0.9043 C   0  0  0  0  0  0
    6.5961   -4.5150   -0.4512 O   0  0  0  0  0  0
    6.7853   -4.0321    0.8425 N   0  0  0  0  0  0
    5.7092   -3.3392    1.1465 C   0  0  0  0  0  0
    5.6009   -2.7342    2.5307 C   0  0  0  0  0  0
    5.0022   -4.5201   -2.2954 C   0  0  0  0  0  0
   -2.4015    0.0143   -0.9277 H   0  0  0  0  0  0
   -4.7113   -0.7265   -0.9095 H   0  0  0  0  0  0
   -5.6122   -2.0660    0.9621 H   0  0  0  0  0  0
   -0.6552   -1.8891    3.4252 H   0  0  0  0  0  0
   -2.4052   -4.9865    6.5348 H   0  0  0  0  0  0
   -3.3238   -5.0300    5.0439 H   0  0  0  0  0  0
   -0.9732   -3.1568    6.9344 H   0  0  0  0  0  0
   -0.1438   -0.1359   -0.9200 H   0  0  0  0  0  0
    1.8109    0.5868    1.3084 H   0  0  0  0  0  0
    2.0775    0.9515   -0.3920 H   0  0  0  0  0  0
   -0.6678    1.8028    2.2538 H   0  0  0  0  0  0
   -1.5321    4.1117    2.2909 H   0  0  0  0  0  0
   -1.8222    5.3542    0.1752 H   0  0  0  0  0  0
   -1.2504    4.2990   -1.9841 H   0  0  0  0  0  0
   -0.3861    1.9901   -2.0358 H   0  0  0  0  0  0
    2.8025   -3.2066   -0.4463 H   0  0  0  0  0  0
    4.5892   -2.4000    2.7594 H   0  0  0  0  0  0
    6.2563   -1.8698    2.6406 H   0  0  0  0  0  0
    5.8746   -3.4469    3.3096 H   0  0  0  0  0  0
    4.0306   -4.1218   -2.5879 H   0  0  0  0  0  0
    4.9416   -5.6057   -2.3713 H   0  0  0  0  0  0
    5.7245   -4.1827   -3.0390 H   0  0  0  0  0  0
   -0.8730   -1.8844    5.7344 H   0  0  0  0  0  0
  1  4  2  0  0  0
  1  2  1  0  0  0
  1 33  1  0  0  0
  2  3  2  0  0  0
  2 34  1  0  0  0
  3  6  1  0  0  0
  3 35  1  0  0  0
  4  5  1  0  0  0
  4 13  1  0  0  0
  5  9  1  0  0  0
  5  6  2  0  0  0
  6  7  1  0  0  0
  7  8  1  0  0  0
  8  9  2  0  0  0
  8 10  1  0  0  0
  9 36  1  0  0  0
 10 11  1  0  0  0
 10 12  2  0  0  0
 11 37  1  0  0  0
 11 38  1  0  0  0
 12 39  1  0  0  0
 12 55  1  0  0  0
 13 14  1  0  0  0
 14 16  1  0  0  0
 14 15  1  0  0  0
 14 40  1  0  0  0
 15 22  1  0  0  0
 15 41  1  0  0  0
 15 42  1  0  0  0
 16 17  2  0  0  0
 16 21  1  0  0  0
 17 18  1  0  0  0
 17 43  1  0  0  0
 18 19  2  0  0  0
 18 44  1  0  0  0
 19 20  1  0  0  0
 19 45  1  0  0  0
 20 21  2  0  0  0
 20 46  1  0  0  0
 21 47  1  0  0  0
 22 23  1  0  0  0
 23 24  1  0  0  0
 23 25  2  0  0  0
 24 26  1  0  0  0
 24 48  1  0  0  0
 26 27  2  0  0  0
 26 30  1  0  0  0
 27 28  1  0  0  0
 27 32  1  0  0  0
 28 29  1  0  0  0
 29 30  2  0  0  0
 30 31  1  0  0  0
 31 49  1  0  0  0
 31 50  1  0  0  0
 31 51  1  0  0  0
 32 52  1  0  0  0
 32 53  1  0  0  0
 32 54  1  0  0  0
M  CHG  1  12   1
M  END
> <chembl_id>
CHEMBL598169

> <chembl_pref_name>
None

> <s_m_source_file>
sdf/actives_sanitized.sdf

> <i_m_source_file_index>
44

> <i_lp_mmshare_version>
49012

> <i_m_ct_stereo_status>
1

> <i_f3d_flags>
0

> <s_epik_input>
W0hdXE49QyhbTkgyXSlcYyhbY0hdMSlzYyhjMTIpW2NIXVtjSF1bY0hdYzJPW0NAQEhdKGMzW2NIXVtjSF1bY0hdW2NIXVtjSF0zKVtDSDJdT0MoPU8pW05IXWM0YyhbQ0gzXSlvbmM0W0NIM10=

> <s_epik_cmdline>
J2VwaWtfcHl0aG9uJywgJy1waHQnLCAnMC41JywgJy1waCcsICc3LjUnLCAnLW50JywgJy1tYScsICcyMDAnLCAnLWltYWUnLCAnPGluZmlsZS5tYWU+JywgJy1vbWFlJywgJzxvdXRmaWxlLm1hZT4n

> <r_lp_tautomer_probability>
1

> <r_epik_Ionization_Penalty>
  0.0095

> <r_epik_Ionization_Penalty_Charging>
  0.0095

> <r_epik_Ionization_Penalty_Neutral>
  0.0000

> <r_epik_State_Penalty>
 -0.0000

> <r_epik_Charging_Adjusted_Penalty>
0.00945881282357717

> <i_epik_Tot_Q>
1

> <i_epik_Tot_abs_Q>
1

> <s_epik_Chemistry_Notes>
This compound has an ester and may undergo hydrolysis at high or low pH. This compound has an imine and may undergo hydrolysis.

> <s_lp_Force_Field>
OPLS3e

> <r_lp_Energy>
29.23585

> <b_lp_Chiralities_Consistent>
1

> <s_lp_Variant>
sdf/actives_sanitized.sdf:44-1

$$$$
sdf/actives_sanitized.sdf:45
                    3D
 Schrodinger Suite 2020-1.
 59 62  0  0  1  0            999 V2000
   -2.9476   -0.5956   -0.0816 C   0  0  0  0  0  0
   -4.3079   -0.8589    0.0350 C   0  0  0  0  0  0
   -4.8209   -1.4902    1.1635 C   0  0  0  0  0  0
   -2.0468   -0.9535    0.9329 C   0  0  0  0  0  0
   -2.5343   -1.5971    2.0896 C   0  0  0  0  0  0
   -3.9329   -1.8568    2.1845 C   0  0  0  0  0  0
   -4.3412   -2.6572    3.6925 S   0  0  0  0  0  0
   -2.6563   -2.6494    4.1971 C   0  0  0  0  0  0
   -1.8390   -2.0550    3.2466 C   0  0  0  0  0  0
   -2.2750   -3.1710    5.4191 C   0  0  0  0  0  0
   -2.8967   -4.2451    5.8888 N   0  0  0  0  0  0
   -1.2896   -2.5804    6.0832 N   0  3  0  0  0  0
   -0.6787   -0.7402    0.9121 O   0  0  0  0  0  0
   -0.0763    0.0116   -0.1478 C   0  0  2  0  0  0
    1.4460   -0.1877   -0.0326 C   0  0  0  0  0  0
   -0.4712    1.4910   -0.0770 C   0  0  0  0  0  0
   -0.5719    2.1403    1.1583 C   0  0  0  0  0  0
   -0.9310    3.4842    1.2119 C   0  0  0  0  0  0
   -1.1890    4.1769    0.0312 C   0  0  0  0  0  0
   -1.0909    3.5382   -1.2029 C   0  0  0  0  0  0
   -0.7311    2.1945   -1.2571 C   0  0  0  0  0  0
    2.1230    0.5085   -1.0753 O   0  0  0  0  0  0
    3.4671    0.5029   -1.1556 C   0  0  0  0  0  0
    3.8470    1.3284   -2.2090 N   0  0  0  0  0  0
    4.2084   -0.1434   -0.4118 O   0  0  0  0  0  0
    5.1443    1.6470   -2.6534 C   0  0  0  0  0  0
   -5.1448   -0.4966   -0.9633 F   0  0  0  0  0  0
    5.3255    2.0595   -3.9901 C   0  0  0  0  0  0
    6.6085    2.3924   -4.4406 C   0  0  0  0  0  0
    7.7048    2.3222   -3.5841 C   0  0  0  0  0  0
    7.5286    1.9256   -2.2618 C   0  0  0  0  0  0
    6.2576    1.5943   -1.7964 C   0  0  0  0  0  0
    4.1686    2.1782   -4.9797 C   0  0  0  0  0  0
    4.0804    0.9816   -5.9303 N   0  3  0  0  0  0
   -2.6047   -0.1049   -0.9795 H   0  0  0  0  0  0
   -5.8796   -1.6900    1.2447 H   0  0  0  0  0  0
   -0.7709   -1.9493    3.3675 H   0  0  0  0  0  0
   -2.6256   -4.6356    6.7794 H   0  0  0  0  0  0
   -3.6406   -4.6674    5.3522 H   0  0  0  0  0  0
   -0.9952   -2.9454    6.9771 H   0  0  0  0  0  0
   -0.3904   -0.4170   -1.1019 H   0  0  0  0  0  0
    1.6837   -1.2516   -0.0863 H   0  0  0  0  0  0
    1.7943    0.1727    0.9371 H   0  0  0  0  0  0
   -0.3705    1.6061    2.0756 H   0  0  0  0  0  0
   -1.0076    3.9879    2.1642 H   0  0  0  0  0  0
   -1.4668    5.2198    0.0729 H   0  0  0  0  0  0
   -1.2930    4.0831   -2.1132 H   0  0  0  0  0  0
   -0.6543    1.7024   -2.2158 H   0  0  0  0  0  0
    3.0939    1.7089   -2.7626 H   0  0  0  0  0  0
    6.7612    2.7111   -5.4619 H   0  0  0  0  0  0
    8.6897    2.5822   -3.9433 H   0  0  0  0  0  0
    8.3761    1.8806   -1.5936 H   0  0  0  0  0  0
    6.1583    1.3130   -0.7594 H   0  0  0  0  0  0
    3.1833    2.2044   -4.5142 H   0  0  0  0  0  0
    4.2730    3.0451   -5.6342 H   0  0  0  0  0  0
    3.3176    1.1102   -6.5799 H   0  0  0  0  0  0
    3.9191    0.1326   -5.4071 H   0  0  0  0  0  0
   -0.8459   -1.7604    5.6960 H   0  0  0  0  0  0
    4.9388    0.8890   -6.4548 H   0  0  0  0  0  0
  1  4  2  0  0  0
  1  2  1  0  0  0
  1 35  1  0  0  0
  2  3  2  0  0  0
  2 27  1  0  0  0
  3  6  1  0  0  0
  3 36  1  0  0  0
  4 13  1  0  0  0
  4  5  1  0  0  0
  5  9  1  0  0  0
  5  6  2  0  0  0
  6  7  1  0  0  0
  7  8  1  0  0  0
  8  9  2  0  0  0
  8 10  1  0  0  0
  9 37  1  0  0  0
 10 11  1  0  0  0
 10 12  2  0  0  0
 11 38  1  0  0  0
 11 39  1  0  0  0
 12 40  1  0  0  0
 12 58  1  0  0  0
 13 14  1  0  0  0
 14 15  1  0  0  0
 14 16  1  0  0  0
 14 41  1  0  0  0
 15 22  1  0  0  0
 15 42  1  0  0  0
 15 43  1  0  0  0
 16 17  2  0  0  0
 16 21  1  0  0  0
 17 18  1  0  0  0
 17 44  1  0  0  0
 18 19  2  0  0  0
 18 45  1  0  0  0
 19 20  1  0  0  0
 19 46  1  0  0  0
 20 21  2  0  0  0
 20 47  1  0  0  0
 21 48  1  0  0  0
 22 23  1  0  0  0
 23 24  1  0  0  0
 23 25  2  0  0  0
 24 26  1  0  0  0
 24 49  1  0  0  0
 26 28  2  0  0  0
 26 32  1  0  0  0
 28 29  1  0  0  0
 28 33  1  0  0  0
 29 30  2  0  0  0
 29 50  1  0  0  0
 30 31  1  0  0  0
 30 51  1  0  0  0
 31 32  2  0  0  0
 31 52  1  0  0  0
 32 53  1  0  0  0
 33 34  1  0  0  0
 33 54  1  0  0  0
 33 55  1  0  0  0
 34 56  1  0  0  0
 34 57  1  0  0  0
 34 59  1  0  0  0
M  CHG  2  12   1  34   1
M  END
> <chembl_id>
CHEMBL601241

> <chembl_pref_name>
None

> <s_m_source_file>
sdf/actives_sanitized.sdf

> <i_m_source_file_index>
45

> <i_lp_mmshare_version>
49012

> <i_m_ct_stereo_status>
1

> <i_f3d_flags>
0

> <s_epik_input>
W0hdXE49QyhbTkgyXSlcYyhbY0hdMSlzYyhjMTIpW2NIXWMoRilbY0hdYzJPW0NAQEhdKGMzW2NIXVtjSF1bY0hdW2NIXVtjSF0zKVtDSDJdT0MoPU8pW05IXWM0YyhbQ0gyXVtOSDJdKVtjSF1bY0hdW2NIXVtjSF00

> <s_epik_cmdline>
J2VwaWtfcHl0aG9uJywgJy1waHQnLCAnMC41JywgJy1waCcsICc3LjUnLCAnLW50JywgJy1tYScsICcyMDAnLCAnLWltYWUnLCAnPGluZmlsZS5tYWU+JywgJy1vbWFlJywgJzxvdXRmaWxlLm1hZT4n

> <r_lp_tautomer_probability>
1

> <r_epik_Ionization_Penalty>
  0.0898

> <r_epik_Ionization_Penalty_Charging>
  0.0898

> <r_epik_Ionization_Penalty_Neutral>
  0.0000

> <r_epik_State_Penalty>
 -0.0000

> <r_epik_Charging_Adjusted_Penalty>
0.0898017615716197

> <i_epik_Tot_Q>
2

> <i_epik_Tot_abs_Q>
2

> <s_epik_Chemistry_Notes>
This compound has an ester and may undergo hydrolysis at high or low pH. This compound has an imine and may undergo hydrolysis.

> <s_lp_Force_Field>
OPLS3e

> <r_lp_Energy>
46.82222

> <b_lp_Chiralities_Consistent>
1

> <s_lp_Variant>
sdf/actives_sanitized.sdf:45-1

$$$$
sdf/actives_sanitized.sdf:46
                    3D
 Schrodinger Suite 2020-1.
 53 56  0  0  1  0            999 V2000
    0.0735    2.1772   -0.4659 C   0  0  0  0  0  0
   -0.7101    3.1760   -1.0333 C   0  0  0  0  0  0
   -2.0574    2.9642   -1.3105 C   0  0  0  0  0  0
   -0.4695    0.9238   -0.1509 C   0  0  0  0  0  0
   -1.8361    0.6819   -0.3985 C   0  0  0  0  0  0
   -2.6139    1.7173   -0.9928 C   0  0  0  0  0  0
   -4.2741    1.2072   -1.2539 S   0  0  0  0  0  0
   -3.9401   -0.3724   -0.5557 C   0  0  0  0  0  0
   -2.6183   -0.4831   -0.1549 C   0  0  0  0  0  0
   -4.9200   -1.3437   -0.4701 C   0  0  0  0  0  0
   -6.1765   -0.9810   -0.2466 N   0  0  0  0  0  0
   -4.5671   -2.6158   -0.6058 N   0  3  0  0  0  0
    0.2188   -0.1421    0.3969 O   0  0  0  0  0  0
    1.6498   -0.1312    0.4602 C   0  0  2  0  0  0
    2.1458   -1.5953    0.4137 C   0  0  0  0  0  0
    2.1375    0.6078    1.7073 C   0  0  0  0  0  0
    1.3938    0.5797    2.8925 C   0  0  0  0  0  0
    1.8487    1.2624    4.0174 C   0  0  0  0  0  0
    3.0459    1.9719    3.9569 C   0  0  0  0  0  0
    3.7934    2.0042    2.7819 C   0  0  0  0  0  0
    3.3387    1.3217    1.6566 C   0  0  0  0  0  0
    1.7846   -2.2790   -0.8303 N   0  0  0  0  0  0
    0.5503   -2.8819   -1.0257 C   0  0  0  0  0  0
    0.4292   -3.2175   -2.3362 O   0  0  0  0  0  0
   -0.3172   -3.0549   -0.1642 O   0  0  0  0  0  0
   -0.8194   -3.4916   -2.8491 C   0  0  0  0  0  0
   -1.6904   -2.4453   -3.1742 C   0  0  0  0  0  0
   -3.3184   -4.0499   -3.9290 C   0  0  0  0  0  0
   -2.4510   -5.0957   -3.6184 C   0  0  0  0  0  0
   -2.9432   -2.7259   -3.7115 C   0  0  0  0  0  0
   -1.1966   -4.8162   -3.0819 C   0  0  0  0  0  0
    1.1124    2.3952   -0.2700 H   0  0  0  0  0  0
   -0.2635    4.1319   -1.2653 H   0  0  0  0  0  0
   -2.6549    3.7452   -1.7579 H   0  0  0  0  0  0
   -2.2146   -1.3748    0.2998 H   0  0  0  0  0  0
   -6.8984   -1.6831   -0.1762 H   0  0  0  0  0  0
   -6.4030   -0.0028   -0.1407 H   0  0  0  0  0  0
   -5.2644   -3.3425   -0.5424 H   0  0  0  0  0  0
    2.0450    0.3696   -0.4268 H   0  0  0  0  0  0
    3.2339   -1.6138    0.4861 H   0  0  0  0  0  0
    1.7774   -2.1519    1.2784 H   0  0  0  0  0  0
    0.4661    0.0287    2.9459 H   0  0  0  0  0  0
    1.2762    1.2411    4.9330 H   0  0  0  0  0  0
    3.3985    2.5015    4.8298 H   0  0  0  0  0  0
    4.7214    2.5557    2.7440 H   0  0  0  0  0  0
    3.9213    1.3489    0.7471 H   0  0  0  0  0  0
    2.4067   -2.1936   -1.6208 H   0  0  0  0  0  0
   -1.3956   -1.4194   -3.0065 H   0  0  0  0  0  0
   -4.2901   -4.2678   -4.3474 H   0  0  0  0  0  0
   -2.7490   -6.1186   -3.7959 H   0  0  0  0  0  0
   -3.6193   -1.9210   -3.9593 H   0  0  0  0  0  0
   -0.5208   -5.6247   -2.8437 H   0  0  0  0  0  0
   -3.5991   -2.8509   -0.7728 H   0  0  0  0  0  0
  1  4  2  0  0  0
  1  2  1  0  0  0
  1 32  1  0  0  0
  2  3  2  0  0  0
  2 33  1  0  0  0
  3  6  1  0  0  0
  3 34  1  0  0  0
  4  5  1  0  0  0
  4 13  1  0  0  0
  5  9  1  0  0  0
  5  6  2  0  0  0
  6  7  1  0  0  0
  7  8  1  0  0  0
  8  9  2  0  0  0
  8 10  1  0  0  0
  9 35  1  0  0  0
 10 11  1  0  0  0
 10 12  2  0  0  0
 11 36  1  0  0  0
 11 37  1  0  0  0
 12 38  1  0  0  0
 12 53  1  0  0  0
 13 14  1  0  0  0
 14 15  1  0  0  0
 14 16  1  0  0  0
 14 39  1  0  0  0
 15 22  1  0  0  0
 15 40  1  0  0  0
 15 41  1  0  0  0
 16 17  2  0  0  0
 16 21  1  0  0  0
 17 18  1  0  0  0
 17 42  1  0  0  0
 18 19  2  0  0  0
 18 43  1  0  0  0
 19 20  1  0  0  0
 19 44  1  0  0  0
 20 21  2  0  0  0
 20 45  1  0  0  0
 21 46  1  0  0  0
 22 23  1  0  0  0
 22 47  1  0  0  0
 23 24  1  0  0  0
 23 25  2  0  0  0
 24 26  1  0  0  0
 26 27  2  0  0  0
 26 31  1  0  0  0
 27 30  1  0  0  0
 27 48  1  0  0  0
 28 29  1  0  0  0
 28 30  2  0  0  0
 28 49  1  0  0  0
 29 31  2  0  0  0
 29 50  1  0  0  0
 30 51  1  0  0  0
 31 52  1  0  0  0
M  CHG  1  12   1
M  END
> <chembl_id>
CHEMBL597370

> <chembl_pref_name>
None

> <s_m_source_file>
sdf/actives_sanitized.sdf

> <i_m_source_file_index>
46

> <i_lp_mmshare_version>
49012

> <i_m_ct_stereo_status>
1

> <i_f3d_flags>
0

> <s_epik_input>
W0hdXE49QyhbTkgyXSlcYyhbY0hdMSlzYyhjMTIpW2NIXVtjSF1bY0hdYzJPW0NAQEhdKGMzW2NIXVtjSF1bY0hdW2NIXVtjSF0zKVtDSDJdW05IXUMoPU8pT2M0W2NIXVtjSF1bY0hdW2NIXVtjSF00

> <s_epik_cmdline>
J2VwaWtfcHl0aG9uJywgJy1waHQnLCAnMC41JywgJy1waCcsICc3LjUnLCAnLW50JywgJy1tYScsICcyMDAnLCAnLWltYWUnLCAnPGluZmlsZS5tYWU+JywgJy1vbWFlJywgJzxvdXRmaWxlLm1hZT4n

> <r_lp_tautomer_probability>
1

> <r_epik_Ionization_Penalty>
  0.0095

> <r_epik_Ionization_Penalty_Charging>
  0.0095

> <r_epik_Ionization_Penalty_Neutral>
  0.0000

> <r_epik_State_Penalty>
 -0.0000

> <r_epik_Charging_Adjusted_Penalty>
0.00945881282357717

> <i_epik_Tot_Q>
1

> <i_epik_Tot_abs_Q>
1

> <s_epik_Chemistry_Notes>
This compound has an imine and may undergo hydrolysis.

> <s_lp_Force_Field>
OPLS3e

> <r_lp_Energy>
33.339196

> <b_lp_Chiralities_Consistent>
1

> <s_lp_Variant>
sdf/actives_sanitized.sdf:46-1

$$$$
sdf/actives_sanitized.sdf:47
                    3D
 Schrodinger Suite 2020-1.
 49 51  0  0  1  0            999 V2000
    0.1802    2.6034   -0.1939 C   0  0  0  0  0  0
   -0.4741    3.8189   -0.3594 C   0  0  0  0  0  0
   -1.8626    3.8876   -0.4129 C   0  0  0  0  0  0
   -0.5371    1.4040   -0.0730 C   0  0  0  0  0  0
   -1.9458    1.4368   -0.1243 C   0  0  0  0  0  0
   -2.5918    2.6961   -0.2956 C   0  0  0  0  0  0
   -4.3385    2.5255   -0.3359 S   0  0  0  0  0  0
   -4.2124    0.7845   -0.1159 C   0  0  0  0  0  0
   -2.8904    0.3740   -0.0287 C   0  0  0  0  0  0
   -5.3402   -0.0138   -0.0680 C   0  0  0  0  0  0
   -6.4452    0.4570    0.4964 N   0  0  0  0  0  0
   -5.2771   -1.2353   -0.5829 N   0  3  0  0  0  0
    0.0118    0.1440    0.0911 O   0  0  0  0  0  0
    1.4291   -0.0223    0.2193 C   0  0  2  0  0  0
    1.7370   -1.5198    0.0545 C   0  0  0  0  0  0
    1.9332    0.4992    1.5675 C   0  0  0  0  0  0
    1.1570    0.3544    2.7232 C   0  0  0  0  0  0
    1.6241    0.8375    3.9423 C   0  0  0  0  0  0
    2.8662    1.4647    4.0057 C   0  0  0  0  0  0
    3.6463    1.6119    2.8609 C   0  0  0  0  0  0
    3.1799    1.1280    1.6415 C   0  0  0  0  0  0
    1.4275   -1.9352   -1.2714 O   0  0  0  0  0  0
    1.6092   -3.2134   -1.6548 C   0  0  0  0  0  0
    1.2396   -3.3395   -2.9856 N   0  0  0  0  0  0
    2.0375   -4.1141   -0.9288 O   0  0  0  0  0  0
    1.3544   -4.5948   -3.7247 C   0  0  0  0  0  0
    2.7907   -4.9048   -4.1745 C   0  0  0  0  0  0
    1.2589    2.6111   -0.1603 H   0  0  0  0  0  0
    0.1066    4.7256   -0.4486 H   0  0  0  0  0  0
   -2.3605    4.8377   -0.5425 H   0  0  0  0  0  0
   -2.5983   -0.6573    0.1049 H   0  0  0  0  0  0
   -7.2756   -0.1156    0.5351 H   0  0  0  0  0  0
   -6.4497    1.3898    0.8831 H   0  0  0  0  0  0
   -6.0880   -1.8358   -0.5550 H   0  0  0  0  0  0
    1.9282    0.5130   -0.5918 H   0  0  0  0  0  0
    2.7949   -1.7044    0.2501 H   0  0  0  0  0  0
    1.1648   -2.1040    0.7776 H   0  0  0  0  0  0
    0.1936   -0.1326    2.6794 H   0  0  0  0  0  0
    1.0262    0.7260    4.8349 H   0  0  0  0  0  0
    3.2284    1.8394    4.9518 H   0  0  0  0  0  0
    4.6088    2.0988    2.9191 H   0  0  0  0  0  0
    3.7883    1.2437    0.7562 H   0  0  0  0  0  0
    0.9170   -2.5187   -3.4772 H   0  0  0  0  0  0
    0.9587   -5.4221   -3.1319 H   0  0  0  0  0  0
    0.7115   -4.5226   -4.6024 H   0  0  0  0  0  0
    2.8240   -5.8396   -4.7345 H   0  0  0  0  0  0
    3.4638   -5.0135   -3.3233 H   0  0  0  0  0  0
    3.1823   -4.1213   -4.8242 H   0  0  0  0  0  0
   -4.4188   -1.5565   -1.0066 H   0  0  0  0  0  0
  1  2  2  0  0  0
  1  4  1  0  0  0
  1 28  1  0  0  0
  2  3  1  0  0  0
  2 29  1  0  0  0
  3  6  2  0  0  0
  3 30  1  0  0  0
  4 13  1  0  0  0
  4  5  2  0  0  0
  5  9  1  0  0  0
  5  6  1  0  0  0
  6  7  1  0  0  0
  7  8  1  0  0  0
  8  9  2  0  0  0
  8 10  1  0  0  0
  9 31  1  0  0  0
 10 11  1  0  0  0
 10 12  2  0  0  0
 11 32  1  0  0  0
 11 33  1  0  0  0
 12 34  1  0  0  0
 12 49  1  0  0  0
 13 14  1  0  0  0
 14 15  1  0  0  0
 14 16  1  0  0  0
 14 35  1  0  0  0
 15 22  1  0  0  0
 15 36  1  0  0  0
 15 37  1  0  0  0
 16 17  2  0  0  0
 16 21  1  0  0  0
 17 18  1  0  0  0
 17 38  1  0  0  0
 18 19  2  0  0  0
 18 39  1  0  0  0
 19 20  1  0  0  0
 19 40  1  0  0  0
 20 21  2  0  0  0
 20 41  1  0  0  0
 21 42  1  0  0  0
 22 23  1  0  0  0
 23 24  1  0  0  0
 23 25  2  0  0  0
 24 26  1  0  0  0
 24 43  1  0  0  0
 26 27  1  0  0  0
 26 44  1  0  0  0
 26 45  1  0  0  0
 27 46  1  0  0  0
 27 47  1  0  0  0
 27 48  1  0  0  0
M  CHG  1  12   1
M  END
> <chembl_id>
CHEMBL606194

> <chembl_pref_name>
None

> <s_m_source_file>
sdf/actives_sanitized.sdf

> <i_m_source_file_index>
47

> <i_lp_mmshare_version>
49012

> <i_m_ct_stereo_status>
1

> <i_f3d_flags>
0

> <s_epik_input>
W0hdXE49QyhbTkgyXSlcYyhbY0hdMSlzYyhjMTIpW2NIXVtjSF1bY0hdYzJPW0NASF0oW0NIMl1PQyg9TylbTkhdW0NIMl1bQ0gzXSljM1tjSF1bY0hdW2NIXVtjSF1bY0hdMw==

> <s_epik_cmdline>
J2VwaWtfcHl0aG9uJywgJy1waHQnLCAnMC41JywgJy1waCcsICc3LjUnLCAnLW50JywgJy1tYScsICcyMDAnLCAnLWltYWUnLCAnPGluZmlsZS5tYWU+JywgJy1vbWFlJywgJzxvdXRmaWxlLm1hZT4n

> <r_lp_tautomer_probability>
1

> <r_epik_Ionization_Penalty>
  0.0095

> <r_epik_Ionization_Penalty_Charging>
  0.0095

> <r_epik_Ionization_Penalty_Neutral>
  0.0000

> <r_epik_State_Penalty>
 -0.0000

> <r_epik_Charging_Adjusted_Penalty>
0.00945881282357717

> <i_epik_Tot_Q>
1

> <i_epik_Tot_abs_Q>
1

> <s_epik_Chemistry_Notes>
This compound has an ester and may undergo hydrolysis at high or low pH. This compound has an imine and may undergo hydrolysis.

> <s_lp_Force_Field>
OPLS3e

> <r_lp_Energy>
23.182169

> <b_lp_Chiralities_Consistent>
1

> <s_lp_Variant>
sdf/actives_sanitized.sdf:47-1

$$$$
sdf/actives_sanitized.sdf:48
                    3D
 Schrodinger Suite 2020-1.
 53 56  0  0  1  0            999 V2000
    0.0596    2.7264    0.0433 C   0  0  0  0  0  0
   -0.6536    3.9184    0.1001 C   0  0  0  0  0  0
   -2.0445    3.9244    0.1225 C   0  0  0  0  0  0
   -0.5982    1.4877    0.0103 C   0  0  0  0  0  0
   -2.0081    1.4575    0.0276 C   0  0  0  0  0  0
   -2.7151    2.6942    0.0847 C   0  0  0  0  0  0
   -4.4525    2.4453    0.1007 S   0  0  0  0  0  0
   -4.2416    0.7008    0.0245 C   0  0  0  0  0  0
   -2.9007    0.3470   -0.0017 C   0  0  0  0  0  0
   -5.3302   -0.1506    0.0185 C   0  0  0  0  0  0
   -6.4367    0.2148   -0.6162 N   0  0  0  0  0  0
   -5.2283   -1.3155    0.6456 N   0  3  0  0  0  0
    0.0129    0.2465   -0.0453 O   0  0  0  0  0  0
    1.4414    0.1345   -0.0133 C   0  0  2  0  0  0
    1.8104   -1.3023   -0.4299 C   0  0  0  0  0  0
    2.0229    0.5142    1.3546 C   0  0  0  0  0  0
    1.3024    0.2770    2.5313 C   0  0  0  0  0  0
    1.8459    0.6250    3.7647 C   0  0  0  0  0  0
    3.1084    1.2105    3.8215 C   0  0  0  0  0  0
    3.8329    1.4500    2.6561 C   0  0  0  0  0  0
    3.2899    1.1014    1.4224 C   0  0  0  0  0  0
    1.3944   -2.2449    0.5543 O   0  0  0  0  0  0
    1.7216   -3.5461    0.4511 C   0  0  0  0  0  0
    1.2346   -4.2167    1.5651 N   0  0  0  0  0  0
    2.3542   -4.0420   -0.4850 O   0  0  0  0  0  0
    1.3749   -5.5869    1.8052 C   0  0  0  0  0  0
    2.6431   -6.1819    1.8520 C   0  0  0  0  0  0
    2.7634   -7.5507    2.0931 C   0  0  0  0  0  0
    1.6221   -8.3287    2.2885 C   0  0  0  0  0  0
    0.3584   -7.7389    2.2433 C   0  0  0  0  0  0
    0.2304   -6.3698    2.0027 C   0  0  0  0  0  0
   -1.0044   -5.8144    1.9633 F   0  0  0  0  0  0
    1.1372    2.7833    0.0279 H   0  0  0  0  0  0
   -0.1175    4.8560    0.1275 H   0  0  0  0  0  0
   -2.5887    4.8567    0.1670 H   0  0  0  0  0  0
   -2.5591   -0.6768   -0.0458 H   0  0  0  0  0  0
   -7.2374   -0.3995   -0.6276 H   0  0  0  0  0  0
   -6.4712    1.1075   -1.0865 H   0  0  0  0  0  0
   -6.0091   -1.9551    0.6499 H   0  0  0  0  0  0
    1.8483    0.7985   -0.7785 H   0  0  0  0  0  0
    2.8912   -1.3710   -0.5663 H   0  0  0  0  0  0
    1.3502   -1.5436   -1.3895 H   0  0  0  0  0  0
    0.3251   -0.1822    2.4928 H   0  0  0  0  0  0
    1.2921    0.4402    4.6735 H   0  0  0  0  0  0
    3.5306    1.4801    4.7785 H   0  0  0  0  0  0
    4.8123    1.9024    2.7096 H   0  0  0  0  0  0
    3.8558    1.2871    0.5209 H   0  0  0  0  0  0
    0.6785   -3.6860    2.2195 H   0  0  0  0  0  0
    3.5343   -5.5889    1.7035 H   0  0  0  0  0  0
    3.7413   -8.0083    2.1287 H   0  0  0  0  0  0
    1.7165   -9.3884    2.4748 H   0  0  0  0  0  0
   -0.5228   -8.3448    2.3952 H   0  0  0  0  0  0
   -4.3708   -1.5533    1.1225 H   0  0  0  0  0  0
  1  4  2  0  0  0
  1  2  1  0  0  0
  1 33  1  0  0  0
  2  3  2  0  0  0
  2 34  1  0  0  0
  3  6  1  0  0  0
  3 35  1  0  0  0
  4  5  1  0  0  0
  4 13  1  0  0  0
  5  9  1  0  0  0
  5  6  2  0  0  0
  6  7  1  0  0  0
  7  8  1  0  0  0
  8  9  2  0  0  0
  8 10  1  0  0  0
  9 36  1  0  0  0
 10 11  1  0  0  0
 10 12  2  0  0  0
 11 37  1  0  0  0
 11 38  1  0  0  0
 12 39  1  0  0  0
 12 53  1  0  0  0
 13 14  1  0  0  0
 14 16  1  0  0  0
 14 15  1  0  0  0
 14 40  1  0  0  0
 15 22  1  0  0  0
 15 41  1  0  0  0
 15 42  1  0  0  0
 16 17  2  0  0  0
 16 21  1  0  0  0
 17 18  1  0  0  0
 17 43  1  0  0  0
 18 19  2  0  0  0
 18 44  1  0  0  0
 19 20  1  0  0  0
 19 45  1  0  0  0
 20 21  2  0  0  0
 20 46  1  0  0  0
 21 47  1  0  0  0
 22 23  1  0  0  0
 23 24  1  0  0  0
 23 25  2  0  0  0
 24 26  1  0  0  0
 24 48  1  0  0  0
 26 27  2  0  0  0
 26 31  1  0  0  0
 27 28  1  0  0  0
 27 49  1  0  0  0
 28 29  2  0  0  0
 28 50  1  0  0  0
 29 30  1  0  0  0
 29 51  1  0  0  0
 30 31  2  0  0  0
 30 52  1  0  0  0
 31 32  1  0  0  0
M  CHG  1  12   1
M  END
> <chembl_id>
CHEMBL606183

> <chembl_pref_name>
None

> <s_m_source_file>
sdf/actives_sanitized.sdf

> <i_m_source_file_index>
48

> <i_lp_mmshare_version>
49012

> <i_m_ct_stereo_status>
1

> <i_f3d_flags>
0

> <s_epik_input>
W0hdXE49QyhbTkgyXSlcYyhbY0hdMSlzYyhjMTIpW2NIXVtjSF1bY0hdYzJPW0NAQEhdKGMzW2NIXVtjSF1bY0hdW2NIXVtjSF0zKVtDSDJdT0MoPU8pW05IXWM0W2NIXVtjSF1bY0hdW2NIXWM0Rg==

> <s_epik_cmdline>
J2VwaWtfcHl0aG9uJywgJy1waHQnLCAnMC41JywgJy1waCcsICc3LjUnLCAnLW50JywgJy1tYScsICcyMDAnLCAnLWltYWUnLCAnPGluZmlsZS5tYWU+JywgJy1vbWFlJywgJzxvdXRmaWxlLm1hZT4n

> <r_lp_tautomer_probability>
1

> <r_epik_Ionization_Penalty>
  0.0095

> <r_epik_Ionization_Penalty_Charging>
  0.0095

> <r_epik_Ionization_Penalty_Neutral>
  0.0000

> <r_epik_State_Penalty>
 -0.0000

> <r_epik_Charging_Adjusted_Penalty>
0.00945881282357717

> <i_epik_Tot_Q>
1

> <i_epik_Tot_abs_Q>
1

> <s_epik_Chemistry_Notes>
This compound has an ester and may undergo hydrolysis at high or low pH. This compound has an imine and may undergo hydrolysis.

> <s_lp_Force_Field>
OPLS3e

> <r_lp_Energy>
38.077236

> <b_lp_Chiralities_Consistent>
1

> <s_lp_Variant>
sdf/actives_sanitized.sdf:48-1

$$$$
sdf/actives_sanitized.sdf:49
                    3D
 Schrodinger Suite 2020-1.
 47 50  0  0  1  0            999 V2000
   -0.0474    0.1686    0.0019 O   0  0  0  0  0  0
    4.2707    2.6578    0.0265 C   0  0  0  0  0  0
    5.4381    2.7350    0.7917 C   0  0  0  0  0  0
    6.1887    3.9042    0.8752 C   0  0  0  0  0  0
    3.8388    3.7870   -0.6818 C   0  0  0  0  0  0
    4.5660    4.9877   -0.6259 C   0  0  0  0  0  0
    5.7470    5.0272    0.1650 C   0  0  0  0  0  0
    6.5051    6.6094    0.1084 S   0  0  0  0  0  0
    5.2546    7.2113   -0.9744 C   0  0  0  0  0  0
    4.3094    6.2357   -1.2577 C   0  0  0  0  0  0
    5.2679    8.5178   -1.4267 C   0  0  0  0  0  0
    6.4306    9.1117   -1.6629 N   0  0  0  0  0  0
    4.1092    9.1350   -1.6197 N   0  3  0  0  0  0
    3.4902    1.3894   -0.0369 C   0  0  0  0  0  0
    4.1341    0.1523   -0.1689 C   0  0  0  0  0  0
    2.0092   -0.9906   -0.1796 C   0  0  0  0  0  0
    1.3358    0.2247   -0.0522 C   0  0  0  0  0  0
    3.4003   -1.0302   -0.2380 C   0  0  0  0  0  0
    2.0899    1.4073    0.0284 C   0  0  0  0  0  0
   -0.8526    1.3624   -0.0156 C   0  0  2  0  0  0
   -2.3075    0.9861    0.2734 C   0  0  0  0  0  0
   -0.7769    2.0787   -1.3885 C   0  0  0  0  0  0
   -3.0435    1.7248    1.2061 C   0  0  0  0  0  0
   -4.3648    1.3834    1.4830 C   0  0  0  0  0  0
   -4.9520    0.3035    0.8275 C   0  0  0  0  0  0
   -4.2287   -0.4372   -0.1047 C   0  0  0  0  0  0
   -2.9074   -0.0968   -0.3820 C   0  0  0  0  0  0
   -6.2345   -0.0284    1.0986 F   0  0  0  0  0  0
   -1.0822    3.2921   -1.4072 O   0  0  0  0  0  0
   -0.4105    1.4188   -2.3873 O   0  5  0  0  0  0
    5.7733    1.8693    1.3447 H   0  0  0  0  0  0
    7.0861    3.9392    1.4756 H   0  0  0  0  0  0
    2.9408    3.7331   -1.2808 H   0  0  0  0  0  0
    3.4576    6.4031   -1.9004 H   0  0  0  0  0  0
    6.4521   10.0665   -1.9895 H   0  0  0  0  0  0
    7.2904    8.6055   -1.5077 H   0  0  0  0  0  0
    4.0949   10.0886   -1.9498 H   0  0  0  0  0  0
    5.2118    0.1009   -0.2268 H   0  0  0  0  0  0
    1.4476   -1.9115   -0.2378 H   0  0  0  0  0  0
    3.9097   -1.9768   -0.3411 H   0  0  0  0  0  0
    1.5937    2.3588    0.1414 H   0  0  0  0  0  0
   -0.5063    2.0379    0.7695 H   0  0  0  0  0  0
   -2.5936    2.5636    1.7171 H   0  0  0  0  0  0
   -4.9312    1.9536    2.2044 H   0  0  0  0  0  0
   -4.6897   -1.2727   -0.6102 H   0  0  0  0  0  0
   -2.3491   -0.6729   -1.1059 H   0  0  0  0  0  0
    3.2459    8.6488   -1.4259 H   0  0  0  0  0  0
  1 17  1  0  0  0
  1 20  1  0  0  0
  2  3  2  0  0  0
  2  5  1  0  0  0
  2 14  1  0  0  0
  3  4  1  0  0  0
  3 31  1  0  0  0
  4  7  2  0  0  0
  4 32  1  0  0  0
  5  6  2  0  0  0
  5 33  1  0  0  0
  6 10  1  0  0  0
  6  7  1  0  0  0
  7  8  1  0  0  0
  8  9  1  0  0  0
  9 10  2  0  0  0
  9 11  1  0  0  0
 10 34  1  0  0  0
 11 12  1  0  0  0
 11 13  2  0  0  0
 12 35  1  0  0  0
 12 36  1  0  0  0
 13 37  1  0  0  0
 13 47  1  0  0  0
 14 19  2  0  0  0
 14 15  1  0  0  0
 15 18  2  0  0  0
 15 38  1  0  0  0
 16 17  2  0  0  0
 16 18  1  0  0  0
 16 39  1  0  0  0
 17 19  1  0  0  0
 18 40  1  0  0  0
 19 41  1  0  0  0
 20 21  1  0  0  0
 20 22  1  0  0  0
 20 42  1  0  0  0
 21 23  2  0  0  0
 21 27  1  0  0  0
 22 29  2  0  0  0
 22 30  1  0  0  0
 23 24  1  0  0  0
 23 43  1  0  0  0
 24 25  2  0  0  0
 24 44  1  0  0  0
 25 26  1  0  0  0
 25 28  1  0  0  0
 26 27  2  0  0  0
 26 45  1  0  0  0
 27 46  1  0  0  0
M  CHG  2  13   1  30  -1
M  END
> <chembl_id>
CHEMBL596739

> <chembl_pref_name>
None

> <s_m_source_file>
sdf/actives_sanitized.sdf

> <i_m_source_file_index>
49

> <i_lp_mmshare_version>
49012

> <i_m_ct_stereo_status>
1

> <i_f3d_flags>
0

> <s_epik_input>
W2NIXTFbY0hdYyhGKVtjSF1bY0hdYzFbQ0BIXShDKD1PKVtPSF0pT2MoW2NIXTIpW2NIXVtjSF1bY0hdYzItYyhbY0hdMylbY0hdW2NIXWMoYzM0KXNjKFtjSF00KS9DKFtOSDJdKT1OL1tIXQ==

> <s_epik_cmdline>
J2VwaWtfcHl0aG9uJywgJy1waHQnLCAnMC41JywgJy1waCcsICc3LjUnLCAnLW50JywgJy1tYScsICcyMDAnLCAnLWltYWUnLCAnPGluZmlsZS5tYWU+JywgJy1vbWFlJywgJzxvdXRmaWxlLm1hZT4n

> <r_lp_tautomer_probability>
1

> <r_epik_Ionization_Penalty>
  0.0095

> <r_epik_Ionization_Penalty_Charging>
  0.0095

> <r_epik_Ionization_Penalty_Neutral>
  0.0000

> <r_epik_State_Penalty>
 -0.0000

> <r_epik_Charging_Adjusted_Penalty>
0.00946716452310331

> <i_epik_Tot_Q>
0

> <i_epik_Tot_abs_Q>
2

> <s_epik_Chemistry_Notes>
This compound has an imine and may undergo hydrolysis.

> <s_lp_Force_Field>
OPLS3e

> <r_lp_Energy>
32.555308

> <b_lp_Chiralities_Consistent>
1

> <s_lp_Variant>
sdf/actives_sanitized.sdf:49-1

$$$$
sdf/actives_sanitized.sdf:50
                    3D
 Schrodinger Suite 2020-1.
 55 59  0  0  1  0            999 V2000
   -0.4168   -0.5389    6.5231 C   0  0  0  0  0  0
   -0.3295    0.6739    5.8415 C   0  0  0  0  0  0
   -0.5484   -1.7453    4.4194 C   0  0  0  0  0  0
   -0.5251   -1.7335    5.8160 C   0  0  0  0  0  0
   -0.4605   -0.5283    3.7127 C   0  0  0  0  0  0
   -0.3537    0.6578    4.4646 N   0  0  0  0  0  0
   -0.2851    1.7528    3.6685 N   0  0  0  0  0  0
   -0.4479   -0.0963    2.3607 C   0  0  0  0  0  0
   -0.3404    1.3032    2.4340 C   0  0  0  0  0  0
   -0.2923    2.2062    1.2060 C   0  0  0  0  0  0
   -0.7541    1.3792   -0.0183 C   0  0  0  0  0  0
   -0.0257    0.0034   -0.1280 C   0  0  2  0  0  0
   -0.5611   -0.8709    1.0471 C   0  0  0  0  0  0
   -0.2108    1.9957    6.5868 C   0  0  0  0  0  0
   -0.6549   -2.9313    3.7407 O   0  0  0  0  0  0
    1.4479    0.0711   -0.0582 N   0  0  0  0  0  0
    2.2887    0.7713   -0.8436 C   0  0  0  0  0  0
    3.7450    0.5521   -0.5404 C   0  0  0  0  0  0
    1.9445    1.5255   -1.7531 O   0  0  0  0  0  0
    4.4063    1.3467    0.4160 C   0  0  0  0  0  0
    5.7598    1.1391    0.6830 C   0  0  0  0  0  0
    6.4821    0.1472    0.0105 C   0  0  0  0  0  0
    5.8213   -0.6430   -0.9386 C   0  0  0  0  0  0
    4.4680   -0.4496   -1.2162 C   0  0  0  0  0  0
    3.7355   -1.4798   -2.4049 Cl  0  0  0  0  0  0
    7.8590   -0.0456    0.2899 N   0  0  0  0  0  0
    8.6060    0.3830    1.3595 C   0  0  0  0  0  0
    9.8513    0.0023    1.2417 N   0  0  0  0  0  0
    9.8340   -0.6628    0.0974 C   0  0  0  0  0  0
    8.6766   -0.7277   -0.5273 N   0  0  0  0  0  0
   11.0855   -1.2891   -0.4767 C   0  0  0  0  0  0
    3.5985    2.6020    1.2991 Cl  0  0  0  0  0  0
   -0.4023   -0.6943   -1.4609 C   0  0  0  0  0  0
   -0.4019   -0.5603    7.6032 H   0  0  0  0  0  0
   -0.5924   -2.6634    6.3622 H   0  0  0  0  0  0
   -0.9335    3.0799    1.3271 H   0  0  0  0  0  0
    0.7196    2.5764    1.0458 H   0  0  0  0  0  0
   -1.8373    1.2434   -0.0085 H   0  0  0  0  0  0
   -0.5419    1.9814   -0.9027 H   0  0  0  0  0  0
   -0.0078   -1.8101    1.1033 H   0  0  0  0  0  0
   -1.6039   -1.1484    0.8853 H   0  0  0  0  0  0
   -0.2053    1.8507    7.6678 H   0  0  0  0  0  0
   -1.0481    2.6483    6.3375 H   0  0  0  0  0  0
    0.7126    2.5055    6.3105 H   0  0  0  0  0  0
   -0.7060   -3.6941    4.3214 H   0  0  0  0  0  0
    1.8595   -0.4621    0.6936 H   0  0  0  0  0  0
    6.2424    1.7687    1.4160 H   0  0  0  0  0  0
    6.3530   -1.4192   -1.4703 H   0  0  0  0  0  0
    8.1702    0.9536    2.1658 H   0  0  0  0  0  0
   10.9922   -1.5745   -1.5252 H   0  0  0  0  0  0
   11.4369   -2.1315    0.1192 H   0  0  0  0  0  0
   11.9081   -0.5741   -0.4415 H   0  0  0  0  0  0
   -1.4815   -0.8253   -1.5497 H   0  0  0  0  0  0
    0.0501   -1.6843   -1.5395 H   0  0  0  0  0  0
   -0.0840   -0.1198   -2.3314 H   0  0  0  0  0  0
  1  2  2  0  0  0
  1  4  1  0  0  0
  1 34  1  0  0  0
  2  6  1  0  0  0
  2 14  1  0  0  0
  3  5  1  0  0  0
  3  4  2  0  0  0
  3 15  1  0  0  0
  4 35  1  0  0  0
  5  6  1  0  0  0
  5  8  2  0  0  0
  6  7  1  0  0  0
  7  9  2  0  0  0
  8  9  1  0  0  0
  8 13  1  0  0  0
  9 10  1  0  0  0
 10 11  1  0  0  0
 10 36  1  0  0  0
 10 37  1  0  0  0
 11 12  1  0  0  0
 11 38  1  0  0  0
 11 39  1  0  0  0
 12 13  1  0  0  0
 12 16  1  0  0  0
 12 33  1  0  0  0
 13 40  1  0  0  0
 13 41  1  0  0  0
 14 42  1  0  0  0
 14 43  1  0  0  0
 14 44  1  0  0  0
 15 45  1  0  0  0
 16 17  1  0  0  0
 16 46  1  0  0  0
 17 18  1  0  0  0
 17 19  2  0  0  0
 18 20  2  0  0  0
 18 24  1  0  0  0
 20 21  1  0  0  0
 20 32  1  0  0  0
 21 22  2  0  0  0
 21 47  1  0  0  0
 22 23  1  0  0  0
 22 26  1  0  0  0
 23 24  2  0  0  0
 23 48  1  0  0  0
 24 25  1  0  0  0
 26 27  1  0  0  0
 26 30  1  0  0  0
 27 28  2  0  0  0
 27 49  1  0  0  0
 28 29  1  0  0  0
 29 30  2  0  0  0
 29 31  1  0  0  0
 31 50  1  0  0  0
 31 51  1  0  0  0
 31 52  1  0  0  0
 33 53  1  0  0  0
 33 54  1  0  0  0
 33 55  1  0  0  0
M  END
> <chembl_id>
CHEMBL3628829

> <chembl_pref_name>
None

> <i_m_ct_stereo_status>
1

> <s_m_source_file>
sdf/actives_sanitized.sdf

> <i_m_source_file_index>
50

> <i_lp_mmshare_version>
49012

> <i_f3d_flags>
0

> <s_epik_input>
W09IXWMxW2NIXVtjSF1jKFtDSDNdKW4oYzEyKW5jM2MyW0NIMl1bQ0BAXShbQ0gzXSkoW0NIMl1bQ0gyXTMpW05IXUMoPU8pYzRjKENsKVtjSF1jKFtjSF1jNENsKS1uNVtjSF1uYyhuNSlbQ0gzXQ==

> <s_epik_cmdline>
J2VwaWtfcHl0aG9uJywgJy1waHQnLCAnMC41JywgJy1waCcsICc3LjUnLCAnLW50JywgJy1tYScsICcyMDAnLCAnLWltYWUnLCAnPGluZmlsZS5tYWU+JywgJy1vbWFlJywgJzxvdXRmaWxlLm1hZT4n

> <r_lp_tautomer_probability>
1

> <r_epik_Ionization_Penalty>
  0.0172

> <r_epik_Ionization_Penalty_Charging>
  0.0000

> <r_epik_Ionization_Penalty_Neutral>
  0.0172

> <r_epik_State_Penalty>
  0.0136

> <r_epik_Charging_Adjusted_Penalty>
0.0135721177526746

> <i_epik_Tot_Q>
0

> <i_epik_Tot_abs_Q>
0

> <s_lp_Force_Field>
OPLS3e

> <r_lp_Energy>
23.111686

> <b_lp_Chiralities_Consistent>
1

> <s_lp_Variant>
sdf/actives_sanitized.sdf:50-1

$$$$
sdf/actives_sanitized.sdf:51
                    3D
 Schrodinger Suite 2020-1.
 60 65  0  0  1  0            999 V2000
    0.1496    0.2448    0.1831 C   0  0  0  0  0  0
   -0.6746    1.3214   -0.1386 N   0  0  0  0  0  0
    7.5150   -2.5859   -0.2915 N   0  0  0  0  0  0
   -1.9705    1.0072    0.0711 N   0  0  0  0  0  0
    1.5883    0.2429    0.3271 C   0  0  0  0  0  0
   -2.0202   -0.2661    0.3799 C   0  0  0  0  0  0
   -0.7325   -0.7936    0.4610 C   0  0  0  0  0  0
   -3.6180   -1.6906    4.0669 N   0  0  0  0  0  0
    7.9894   -3.6468   -1.0396 C   0  0  0  0  0  0
   -3.5633   -0.7877    3.0202 N   0  0  0  0  0  0
   -3.4527   -1.5498    1.9259 N   0  0  0  0  0  0
    9.2762   -3.8523   -0.9511 N   0  0  0  0  0  0
   -3.5371   -2.9956    3.5847 N   0  0  0  0  0  0
    8.6329   -2.0591    0.3440 C   0  0  0  0  0  0
   -0.3394    2.6852   -0.3804 C   0  0  0  0  0  0
   -3.4375   -2.8745    2.2851 C   0  0  0  0  0  0
    2.3090    4.6579   -2.2511 C   0  0  0  0  0  0
    2.1572   -0.9282   -0.0359 N   0  0  0  0  0  0
   -3.3548   -0.9524    0.6016 C   0  0  0  0  0  0
    9.7092   -2.8777   -0.0966 C   0  0  0  0  0  0
    6.1757   -2.1362   -0.2506 C   0  0  0  0  0  0
    0.7682    3.0076   -1.1779 C   0  0  0  0  0  0
    1.1383    4.3405   -1.4282 C   0  0  0  0  0  0
    3.0187    5.7445   -1.9713 N   0  3  0  0  0  0
    2.1894    1.2317    0.7486 O   0  0  0  0  0  0
    5.1329   -3.0681   -0.2236 C   0  0  0  0  0  0
    5.8890   -0.7691   -0.1883 C   0  0  0  0  0  0
    3.5215   -1.2693   -0.0881 C   0  0  0  0  0  0
    2.6317    3.8504   -3.2547 N   0  0  0  0  0  0
    3.8125   -2.6337   -0.1505 C   0  0  0  0  0  0
    4.5687   -0.3349   -0.1153 C   0  0  0  0  0  0
   -1.1094    3.7268    0.1574 C   0  0  0  0  0  0
    8.8362   -1.0002    1.2414 C   0  0  0  0  0  0
    0.3498    5.3567   -0.8631 C   0  0  0  0  0  0
   -0.7639    5.0537   -0.0826 C   0  0  0  0  0  0
   11.0130   -2.6266    0.3544 C   0  0  0  0  0  0
   10.1463   -0.7779    1.6721 C   0  0  0  0  0  0
   11.2109   -1.5678    1.2400 C   0  0  0  0  0  0
   -0.4769   -1.8043    0.7453 H   0  0  0  0  0  0
    7.3071   -4.2214   -1.6492 H   0  0  0  0  0  0
   -3.3504   -3.6575    1.5459 H   0  0  0  0  0  0
    1.5273   -1.6740   -0.2925 H   0  0  0  0  0  0
   -3.4833   -1.7591   -0.1213 H   0  0  0  0  0  0
   -4.2052   -0.2800    0.4712 H   0  0  0  0  0  0
    1.3475    2.2054   -1.6128 H   0  0  0  0  0  0
    3.8308    5.9727   -2.5257 H   0  0  0  0  0  0
    5.3369   -4.1287   -0.2539 H   0  0  0  0  0  0
    6.6793   -0.0338   -0.2212 H   0  0  0  0  0  0
    3.4354    4.0565   -3.8295 H   0  0  0  0  0  0
    2.0674    3.0344   -3.4420 H   0  0  0  0  0  0
    3.0186   -3.3672   -0.1344 H   0  0  0  0  0  0
    4.3882    0.7281   -0.0989 H   0  0  0  0  0  0
   -1.9713    3.5186    0.7750 H   0  0  0  0  0  0
    8.0276   -0.3811    1.5997 H   0  0  0  0  0  0
    0.5863    6.3983   -1.0301 H   0  0  0  0  0  0
   -1.3594    5.8499    0.3397 H   0  0  0  0  0  0
   11.8441   -3.2350    0.0287 H   0  0  0  0  0  0
   10.3409    0.0292    2.3634 H   0  0  0  0  0  0
   12.2071   -1.3574    1.6007 H   0  0  0  0  0  0
    2.7483    6.3329   -1.1967 H   0  0  0  0  0  0
  1  2  1  0  0  0
  1  5  1  0  0  0
  1  7  2  0  0  0
  2  4  1  0  0  0
  2 15  1  0  0  0
  3 21  1  0  0  0
  3  9  1  0  0  0
  3 14  1  0  0  0
  4  6  2  0  0  0
  5 18  1  0  0  0
  5 25  2  0  0  0
  6  7  1  0  0  0
  6 19  1  0  0  0
  7 39  1  0  0  0
  8 10  2  0  0  0
  8 13  1  0  0  0
  9 12  2  0  0  0
  9 40  1  0  0  0
 10 11  1  0  0  0
 11 19  1  0  0  0
 11 16  1  0  0  0
 12 20  1  0  0  0
 13 16  2  0  0  0
 14 20  2  0  0  0
 14 33  1  0  0  0
 15 22  2  0  0  0
 15 32  1  0  0  0
 16 41  1  0  0  0
 17 23  1  0  0  0
 17 24  2  0  0  0
 17 29  1  0  0  0
 18 28  1  0  0  0
 18 42  1  0  0  0
 19 43  1  0  0  0
 19 44  1  0  0  0
 20 36  1  0  0  0
 21 27  2  0  0  0
 21 26  1  0  0  0
 22 23  1  0  0  0
 22 45  1  0  0  0
 23 34  2  0  0  0
 24 46  1  0  0  0
 24 60  1  0  0  0
 26 30  2  0  0  0
 26 47  1  0  0  0
 27 31  1  0  0  0
 27 48  1  0  0  0
 28 30  1  0  0  0
 28 31  2  0  0  0
 29 49  1  0  0  0
 29 50  1  0  0  0
 30 51  1  0  0  0
 31 52  1  0  0  0
 32 35  2  0  0  0
 32 53  1  0  0  0
 33 37  2  0  0  0
 33 54  1  0  0  0
 34 35  1  0  0  0
 34 55  1  0  0  0
 35 56  1  0  0  0
 36 38  2  0  0  0
 36 57  1  0  0  0
 37 38  1  0  0  0
 37 58  1  0  0  0
 38 59  1  0  0  0
M  CHG  1  24   1
M  END
> <chembl_id>
CHEMBL187097

> <chembl_pref_name>
None

> <s_m_source_file>
sdf/actives_sanitized.sdf

> <i_m_source_file_index>
51

> <i_lp_mmshare_version>
49012

> <i_m_ct_stereo_status>
1

> <i_f3d_flags>
0

> <s_epik_input>
W2NIXTFubm5uMVtDSDJdYyhbY0hdMilubigtYzNbY0hdYygvQyg9Ti9bSF0pW05IMl0pW2NIXVtjSF1bY0hdMyljMkMoPU8pW05IXWMoW2NIXVtjSF00KVtjSF1bY0hdYzQtbjVbY0hdbmMoYzU2KVtjSF1bY0hdW2NIXVtjSF02

> <s_epik_cmdline>
J2VwaWtfcHl0aG9uJywgJy1waHQnLCAnMC41JywgJy1waCcsICc3LjUnLCAnLW50JywgJy1tYScsICcyMDAnLCAnLWltYWUnLCAnPGluZmlsZS5tYWU+JywgJy1vbWFlJywgJzxvdXRmaWxlLm1hZT4n

> <r_lp_tautomer_probability>
1

> <r_epik_Ionization_Penalty>
  0.0112

> <r_epik_Ionization_Penalty_Charging>
  0.0010

> <r_epik_Ionization_Penalty_Neutral>
  0.0102

> <r_epik_State_Penalty>
  0.0078

> <r_epik_Charging_Adjusted_Penalty>
0.00877873498810205

> <i_epik_Tot_Q>
1

> <i_epik_Tot_abs_Q>
1

> <s_epik_Chemistry_Notes>
This compound has an imine and may undergo hydrolysis.

> <s_lp_Force_Field>
OPLS3e

> <r_lp_Energy>
46.687878

> <b_lp_Chiralities_Consistent>
1

> <s_lp_Variant>
sdf/actives_sanitized.sdf:51-1

$$$$
sdf/actives_sanitized.sdf:52
                    3D
 Schrodinger Suite 2020-1.
 55 59  0  0  1  0            999 V2000
    0.1709   -0.0028   -0.0921 C   0  0  0  0  0  0
   -0.5847    1.1542    0.0818 N   0  0  0  0  0  0
   -1.8959    0.8950   -0.1086 N   0  0  0  0  0  0
   -2.0278   -0.4049   -0.2465 C   0  0  0  0  0  0
   -0.7729   -1.0117   -0.2459 C   0  0  0  0  0  0
    7.5218   -2.7028    0.0620 N   0  0  0  0  0  0
    1.6061   -0.1168   -0.2144 C   0  0  0  0  0  0
    8.3795   -2.8232    1.1394 C   0  0  0  0  0  0
   -3.3913   -1.0530   -0.4153 C   0  0  0  0  0  0
    8.2874   -3.0322   -1.0509 C   0  0  0  0  0  0
    9.5963   -3.1893    0.8385 N   0  0  0  0  0  0
    6.1504   -2.3648    0.1325 C   0  0  0  0  0  0
    2.1011   -1.2622    0.2970 N   0  0  0  0  0  0
   -0.1669    2.5151    0.1537 C   0  0  0  0  0  0
    5.2222   -2.9459   -0.7420 C   0  0  0  0  0  0
    9.5723   -3.3311   -0.5201 C   0  0  0  0  0  0
    2.5809    4.5513    1.8014 C   0  0  0  0  0  0
    3.4499   -1.6233    0.2369 C   0  0  0  0  0  0
    3.8762   -2.5815   -0.6898 C   0  0  0  0  0  0
    8.0316   -3.0941   -2.4288 C   0  0  0  0  0  0
    0.9573    2.8691    0.9138 C   0  0  0  0  0  0
    1.3999    4.2002    1.0071 C   0  0  0  0  0  0
    3.3502    5.5582    1.4048 N   0  3  0  0  0  0
    2.2849    0.7617   -0.7510 O   0  0  0  0  0  0
    5.7162   -1.3995    1.0514 C   0  0  0  0  0  0
    4.3711   -1.0353    1.1095 C   0  0  0  0  0  0
   -3.4547   -1.7281   -1.5626 F   0  0  0  0  0  0
   -3.6291   -1.9151    0.5727 F   0  0  0  0  0  0
   -4.3853   -0.1620   -0.4188 F   0  0  0  0  0  0
   10.6145   -3.7132   -1.3763 C   0  0  0  0  0  0
    9.0895   -3.4797   -3.2562 C   0  0  0  0  0  0
    2.8512    3.8548    2.8990 N   0  0  0  0  0  0
    2.9953   -3.1651   -1.5368 F   0  0  0  0  0  0
   10.3507   -3.7842   -2.7433 C   0  0  0  0  0  0
    8.8288   -3.5789   -4.9596 Cl  0  0  0  0  0  0
   -0.8748    3.5259   -0.5134 C   0  0  0  0  0  0
    0.6715    5.1830    0.3166 C   0  0  0  0  0  0
   -0.4550    4.8506   -0.4328 C   0  0  0  0  0  0
   -0.5774   -2.0641   -0.3963 H   0  0  0  0  0  0
    8.0165   -2.6345    2.1393 H   0  0  0  0  0  0
    1.4661   -1.9262    0.7157 H   0  0  0  0  0  0
    5.5279   -3.6993   -1.4527 H   0  0  0  0  0  0
    7.0676   -2.8505   -2.8493 H   0  0  0  0  0  0
    1.4896    2.0947    1.4478 H   0  0  0  0  0  0
    4.1667    5.8104    1.9421 H   0  0  0  0  0  0
    6.4155   -0.9219    1.7223 H   0  0  0  0  0  0
    4.0503   -0.2926    1.8259 H   0  0  0  0  0  0
   11.5967   -3.9467   -0.9919 H   0  0  0  0  0  0
    3.6606    4.0870    3.4557 H   0  0  0  0  0  0
    2.2411    3.0996    3.1760 H   0  0  0  0  0  0
   11.1429   -4.0775   -3.4170 H   0  0  0  0  0  0
   -1.7471    3.2940   -1.1077 H   0  0  0  0  0  0
    0.9648    6.2226    0.3610 H   0  0  0  0  0  0
   -1.0036    5.6220   -0.9532 H   0  0  0  0  0  0
    3.1187    6.0634    0.5619 H   0  0  0  0  0  0
  1  2  1  0  0  0
  1  5  2  0  0  0
  1  7  1  0  0  0
  2  3  1  0  0  0
  2 14  1  0  0  0
  3  4  2  0  0  0
  4  5  1  0  0  0
  4  9  1  0  0  0
  5 39  1  0  0  0
  6 12  1  0  0  0
  6  8  1  0  0  0
  6 10  1  0  0  0
  7 13  1  0  0  0
  7 24  2  0  0  0
  8 11  2  0  0  0
  8 40  1  0  0  0
  9 27  1  0  0  0
  9 28  1  0  0  0
  9 29  1  0  0  0
 10 16  2  0  0  0
 10 20  1  0  0  0
 11 16  1  0  0  0
 12 25  2  0  0  0
 12 15  1  0  0  0
 13 18  1  0  0  0
 13 41  1  0  0  0
 14 21  2  0  0  0
 14 36  1  0  0  0
 15 19  2  0  0  0
 15 42  1  0  0  0
 16 30  1  0  0  0
 17 22  1  0  0  0
 17 23  2  0  0  0
 17 32  1  0  0  0
 18 19  1  0  0  0
 18 26  2  0  0  0
 19 33  1  0  0  0
 20 31  2  0  0  0
 20 43  1  0  0  0
 21 22  1  0  0  0
 21 44  1  0  0  0
 22 37  2  0  0  0
 23 45  1  0  0  0
 23 55  1  0  0  0
 25 26  1  0  0  0
 25 46  1  0  0  0
 26 47  1  0  0  0
 30 34  2  0  0  0
 30 48  1  0  0  0
 31 34  1  0  0  0
 31 35  1  0  0  0
 32 49  1  0  0  0
 32 50  1  0  0  0
 34 51  1  0  0  0
 36 38  2  0  0  0
 36 52  1  0  0  0
 37 38  1  0  0  0
 37 53  1  0  0  0
 38 54  1  0  0  0
M  CHG  1  23   1
M  END
> <chembl_id>
CHEMBL425538

> <chembl_pref_name>
None

> <s_m_source_file>
sdf/actives_sanitized.sdf

> <i_m_source_file_index>
52

> <i_lp_mmshare_version>
49012

> <i_m_ct_stereo_status>
1

> <i_f3d_flags>
0

> <s_epik_input>
W2NIXTFbY0hdW2NIXWMoL0MoPU4vW0hdKVtOSDJdKVtjSF1jMS1uKG5jKFtjSF0yKUMoRikoRilGKWMyQyg9TylbTkhdYyhbY0hdW2NIXTMpYyhGKVtjSF1jMy1uNFtjSF1uYyhjNDUpW2NIXVtjSF1jKENsKVtjSF01

> <s_epik_cmdline>
J2VwaWtfcHl0aG9uJywgJy1waHQnLCAnMC41JywgJy1waCcsICc3LjUnLCAnLW50JywgJy1tYScsICcyMDAnLCAnLWltYWUnLCAnPGluZmlsZS5tYWU+JywgJy1vbWFlJywgJzxvdXRmaWxlLm1hZT4n

> <r_lp_tautomer_probability>
1

> <r_epik_Ionization_Penalty>
  0.0044

> <r_epik_Ionization_Penalty_Charging>
  0.0010

> <r_epik_Ionization_Penalty_Neutral>
  0.0034

> <r_epik_State_Penalty>
 -0.0000

> <r_epik_Charging_Adjusted_Penalty>
0.000984797499885888

> <i_epik_Tot_Q>
1

> <i_epik_Tot_abs_Q>
1

> <s_epik_Chemistry_Notes>
This compound has an imine and may undergo hydrolysis.

> <s_lp_Force_Field>
OPLS3e

> <r_lp_Energy>
50.754903

> <b_lp_Chiralities_Consistent>
1

> <s_lp_Variant>
sdf/actives_sanitized.sdf:52-1

$$$$
sdf/actives_sanitized.sdf:53
                    3D
 Schrodinger Suite 2020-1.
 61 66  0  0  1  0            999 V2000
    0.1476    0.3112   -0.0652 C   0  0  0  0  0  0
   -0.6352    1.4458   -0.2719 N   0  0  0  0  0  0
    7.4195   -2.7937   -0.1377 N   0  0  0  0  0  0
   -1.9477    1.1344   -0.2088 N   0  0  0  0  0  0
    1.5703    0.2464    0.1892 C   0  0  0  0  0  0
   -0.7689   -0.7344   -0.0165 C   0  0  0  0  0  0
   -2.0379   -0.1710   -0.1294 C   0  0  0  0  0  0
    7.9555   -3.7419   -0.9882 C   0  0  0  0  0  0
    9.2079   -4.0380   -0.7646 N   0  0  0  0  0  0
   -4.0394   -3.5556   -2.4012 N   0  0  0  0  0  0
    8.4540   -2.4497    0.7238 C   0  0  0  0  0  0
   -0.2680    2.8231   -0.2601 C   0  0  0  0  0  0
   -3.5974   -1.7700   -1.2038 N   0  0  0  0  0  0
   -3.5304   -1.3564   -2.4735 N   0  0  0  0  0  0
    2.5292    5.0260   -1.5782 C   0  0  0  0  0  0
    2.1408   -0.8868   -0.2776 N   0  0  0  0  0  0
   -3.7974   -2.4706   -3.1221 C   0  0  0  0  0  0
   -3.9178   -3.1001   -1.1809 C   0  0  0  0  0  0
    9.5505   -3.2484    0.2970 C   0  0  0  0  0  0
   -3.3951   -0.8485   -0.0923 C   0  0  0  0  0  0
    6.1058   -2.2767   -0.1967 C   0  0  0  0  0  0
    0.9015    3.2489   -0.9066 C   0  0  0  0  0  0
    1.2984    4.5980   -0.9066 C   0  0  0  0  0  0
    3.2179    6.0441   -1.0757 N   0  3  0  0  0  0
    2.1540    1.1489    0.7901 O   0  0  0  0  0  0
    5.0346   -3.1364   -0.4593 C   0  0  0  0  0  0
    5.8656   -0.9228    0.0567 C   0  0  0  0  0  0
    3.4884   -1.2901   -0.2263 C   0  0  0  0  0  0
    2.9251    4.3868   -2.6724 N   0  0  0  0  0  0
    3.7338   -2.6413   -0.4808 C   0  0  0  0  0  0
    4.5649   -0.4275    0.0344 C   0  0  0  0  0  0
   -1.0694    3.7787    0.3820 C   0  0  0  0  0  0
    8.5662   -1.5696    1.8102 C   0  0  0  0  0  0
    0.4760    5.5235   -0.2430 C   0  0  0  0  0  0
   -0.6963    5.1195    0.3915 C   0  0  0  0  0  0
   10.7842   -3.1576    0.9577 C   0  0  0  0  0  0
    9.8079   -1.5035    2.4463 C   0  0  0  0  0  0
   10.8927   -2.2753    2.0320 C   0  0  0  0  0  0
   -0.5509   -1.7825    0.1300 H   0  0  0  0  0  0
    7.3457   -4.1644   -1.7740 H   0  0  0  0  0  0
    1.5182   -1.5606   -0.6988 H   0  0  0  0  0  0
   -3.8231   -2.4981   -4.2019 H   0  0  0  0  0  0
   -4.0382   -3.6363   -0.2507 H   0  0  0  0  0  0
   -4.2285   -0.1436   -0.0824 H   0  0  0  0  0  0
   -3.4843   -1.4332    0.8245 H   0  0  0  0  0  0
    1.5073    2.5169   -1.4221 H   0  0  0  0  0  0
    4.0655    6.3519   -1.5292 H   0  0  0  0  0  0
    5.2003   -4.1889   -0.6396 H   0  0  0  0  0  0
    6.6809   -0.2415    0.2501 H   0  0  0  0  0  0
    3.7712    4.6714   -3.1435 H   0  0  0  0  0  0
    2.3747    3.6202   -3.0316 H   0  0  0  0  0  0
    2.9176   -3.3196   -0.6867 H   0  0  0  0  0  0
    4.4257    0.6275    0.2087 H   0  0  0  0  0  0
   -1.9790    3.4905    0.8890 H   0  0  0  0  0  0
    7.7385   -0.9698    2.1578 H   0  0  0  0  0  0
    0.7316    6.5736   -0.2187 H   0  0  0  0  0  0
   -1.3170    5.8474    0.8935 H   0  0  0  0  0  0
   11.6296   -3.7544    0.6479 H   0  0  0  0  0  0
    9.9312   -0.8364    3.2868 H   0  0  0  0  0  0
   11.8337   -2.1905    2.5560 H   0  0  0  0  0  0
    2.8914    6.5049   -0.2387 H   0  0  0  0  0  0
  1  2  1  0  0  0
  1  5  1  0  0  0
  1  6  2  0  0  0
  2  4  1  0  0  0
  2 12  1  0  0  0
  3 21  1  0  0  0
  3  8  1  0  0  0
  3 11  1  0  0  0
  4  7  2  0  0  0
  5 16  1  0  0  0
  5 25  2  0  0  0
  6  7  1  0  0  0
  6 39  1  0  0  0
  7 20  1  0  0  0
  8  9  2  0  0  0
  8 40  1  0  0  0
  9 19  1  0  0  0
 10 18  2  0  0  0
 10 17  1  0  0  0
 11 19  2  0  0  0
 11 33  1  0  0  0
 12 22  2  0  0  0
 12 32  1  0  0  0
 13 20  1  0  0  0
 13 14  1  0  0  0
 13 18  1  0  0  0
 14 17  2  0  0  0
 15 23  1  0  0  0
 15 24  2  0  0  0
 15 29  1  0  0  0
 16 28  1  0  0  0
 16 41  1  0  0  0
 17 42  1  0  0  0
 18 43  1  0  0  0
 19 36  1  0  0  0
 20 44  1  0  0  0
 20 45  1  0  0  0
 21 27  2  0  0  0
 21 26  1  0  0  0
 22 23  1  0  0  0
 22 46  1  0  0  0
 23 34  2  0  0  0
 24 47  1  0  0  0
 24 61  1  0  0  0
 26 30  2  0  0  0
 26 48  1  0  0  0
 27 31  1  0  0  0
 27 49  1  0  0  0
 28 30  1  0  0  0
 28 31  2  0  0  0
 29 50  1  0  0  0
 29 51  1  0  0  0
 30 52  1  0  0  0
 31 53  1  0  0  0
 32 35  2  0  0  0
 32 54  1  0  0  0
 33 37  2  0  0  0
 33 55  1  0  0  0
 34 35  1  0  0  0
 34 56  1  0  0  0
 35 57  1  0  0  0
 36 38  2  0  0  0
 36 58  1  0  0  0
 37 38  1  0  0  0
 37 59  1  0  0  0
 38 60  1  0  0  0
M  CHG  1  24   1
M  END
> <chembl_id>
CHEMBL185909

> <chembl_pref_name>
None

> <s_m_source_file>
sdf/actives_sanitized.sdf

> <i_m_source_file_index>
53

> <i_lp_mmshare_version>
49012

> <i_m_ct_stereo_status>
1

> <i_f3d_flags>
0

> <s_epik_input>
W2NIXTFuW2NIXW5uMVtDSDJdYyhbY0hdMilubigtYzNbY0hdYygvQyg9Ti9bSF0pW05IMl0pW2NIXVtjSF1bY0hdMyljMkMoPU8pW05IXWMoW2NIXVtjSF00KVtjSF1bY0hdYzQtbjVbY0hdbmMoYzU2KVtjSF1bY0hdW2NIXVtjSF02

> <s_epik_cmdline>
J2VwaWtfcHl0aG9uJywgJy1waHQnLCAnMC41JywgJy1waCcsICc3LjUnLCAnLW50JywgJy1tYScsICcyMDAnLCAnLWltYWUnLCAnPGluZmlsZS5tYWU+JywgJy1vbWFlJywgJzxvdXRmaWxlLm1hZT4n

> <r_lp_tautomer_probability>
1

> <r_epik_Ionization_Penalty>
  0.0112

> <r_epik_Ionization_Penalty_Charging>
  0.0010

> <r_epik_Ionization_Penalty_Neutral>
  0.0102

> <r_epik_State_Penalty>
  0.0078

> <r_epik_Charging_Adjusted_Penalty>
0.00877873498810205

> <i_epik_Tot_Q>
1

> <i_epik_Tot_abs_Q>
1

> <s_epik_Chemistry_Notes>
This compound has an imine and may undergo hydrolysis.

> <s_lp_Force_Field>
OPLS3e

> <r_lp_Energy>
47.508074

> <b_lp_Chiralities_Consistent>
1

> <s_lp_Variant>
sdf/actives_sanitized.sdf:53-1

$$$$
sdf/actives_sanitized.sdf:54
                    3D
 Schrodinger Suite 2020-1.
 61 66  0  0  1  0            999 V2000
    0.1849    0.2061   -0.0845 C   0  0  0  0  0  0
   -0.6632    1.2663    0.2275 N   0  0  0  0  0  0
   -1.9514    0.9150    0.0289 N   0  0  0  0  0  0
   -0.6715   -0.8600   -0.3365 C   0  0  0  0  0  0
    7.5879   -2.5293    0.4413 N   0  0  0  0  0  0
   -1.9762   -0.3696   -0.2463 C   0  0  0  0  0  0
    1.6225    0.2351   -0.2328 C   0  0  0  0  0  0
    8.1011   -3.4666    1.3178 C   0  0  0  0  0  0
    9.3813   -3.6943    1.1941 N   0  0  0  0  0  0
    8.6706   -2.1161   -0.3253 C   0  0  0  0  0  0
    9.7684   -2.8664    0.1780 C   0  0  0  0  0  0
   -0.3620    2.6431    0.4417 C   0  0  0  0  0  0
    2.2708    4.7194    2.2202 C   0  0  0  0  0  0
    2.2185   -0.9055    0.1803 N   0  0  0  0  0  0
    6.2480   -2.0814    0.3994 C   0  0  0  0  0  0
    0.7528    3.0099    1.2093 C   0  0  0  0  0  0
    1.0903    4.3563    1.4304 C   0  0  0  0  0  0
   11.0459   -2.6995   -0.3752 C   0  0  0  0  0  0
   -3.2594   -1.1126   -0.4572 C   0  0  0  0  0  0
    8.8257   -1.2099   -1.3843 C   0  0  0  0  0  0
    2.9396    5.8237    1.9108 N   0  3  0  0  0  0
    2.1953    1.2205   -0.6989 O   0  0  0  0  0  0
   -5.6687   -1.0915   -0.7942 N   0  0  0  0  0  0
    5.9568   -0.7382    0.1422 C   0  0  0  0  0  0
    5.2061   -2.9994    0.5644 C   0  0  0  0  0  0
    3.5870   -1.2326    0.2301 C   0  0  0  0  0  0
   11.1985   -1.7909   -1.4223 C   0  0  0  0  0  0
    2.6443    3.9348    3.2243 N   0  0  0  0  0  0
   10.1108   -1.0673   -1.9123 C   0  0  0  0  0  0
    3.8834   -2.5731    0.4863 C   0  0  0  0  0  0
    4.6340   -0.3119    0.0644 C   0  0  0  0  0  0
   12.7581   -1.5621   -2.1255 Cl  0  0  0  0  0  0
   -4.4877   -0.4494   -0.6040 C   0  0  0  0  0  0
   -1.1732    3.6542   -0.0941 C   0  0  0  0  0  0
    0.2605    5.3407    0.8686 C   0  0  0  0  0  0
   -0.8609    4.9939    0.1181 C   0  0  0  0  0  0
   -3.2766   -2.5140   -0.5117 C   0  0  0  0  0  0
   -5.6507   -2.4469   -0.8427 C   0  0  0  0  0  0
   -4.4807   -3.1935   -0.7061 C   0  0  0  0  0  0
   -0.3827   -1.8655   -0.6060 H   0  0  0  0  0  0
    7.4524   -3.9359    2.0432 H   0  0  0  0  0  0
    1.6027   -1.6420    0.4920 H   0  0  0  0  0  0
    1.3638    2.2319    1.6445 H   0  0  0  0  0  0
   11.8913   -3.2603   -0.0036 H   0  0  0  0  0  0
    7.9995   -0.6460   -1.7904 H   0  0  0  0  0  0
    3.7553    6.0843    2.4451 H   0  0  0  0  0  0
    6.7468   -0.0116    0.0228 H   0  0  0  0  0  0
    5.4118   -4.0443    0.7465 H   0  0  0  0  0  0
    3.4574    4.1721    3.7735 H   0  0  0  0  0  0
    2.1113    3.1039    3.4355 H   0  0  0  0  0  0
   10.2630   -0.3760   -2.7285 H   0  0  0  0  0  0
    3.0910   -3.2962    0.6195 H   0  0  0  0  0  0
    4.4567    0.7364   -0.1127 H   0  0  0  0  0  0
   -4.5467    0.6289   -0.5728 H   0  0  0  0  0  0
   -2.0428    3.4125   -0.6883 H   0  0  0  0  0  0
    0.4709    6.3910    1.0144 H   0  0  0  0  0  0
   -1.4889    5.7655   -0.3029 H   0  0  0  0  0  0
   -2.3658   -3.0835   -0.4010 H   0  0  0  0  0  0
   -6.6018   -2.9362   -0.9944 H   0  0  0  0  0  0
   -4.5055   -4.2725   -0.7485 H   0  0  0  0  0  0
    2.6330    6.3942    1.1362 H   0  0  0  0  0  0
  1  2  1  0  0  0
  1  4  2  0  0  0
  1  7  1  0  0  0
  2  3  1  0  0  0
  2 12  1  0  0  0
  3  6  2  0  0  0
  4  6  1  0  0  0
  4 40  1  0  0  0
  5 15  1  0  0  0
  5  8  1  0  0  0
  5 10  1  0  0  0
  6 19  1  0  0  0
  7 14  1  0  0  0
  7 22  2  0  0  0
  8  9  2  0  0  0
  8 41  1  0  0  0
  9 11  1  0  0  0
 10 11  2  0  0  0
 10 20  1  0  0  0
 11 18  1  0  0  0
 12 16  2  0  0  0
 12 34  1  0  0  0
 13 17  1  0  0  0
 13 21  2  0  0  0
 13 28  1  0  0  0
 14 26  1  0  0  0
 14 42  1  0  0  0
 15 24  2  0  0  0
 15 25  1  0  0  0
 16 17  1  0  0  0
 16 43  1  0  0  0
 17 35  2  0  0  0
 18 27  2  0  0  0
 18 44  1  0  0  0
 19 33  1  0  0  0
 19 37  2  0  0  0
 20 29  2  0  0  0
 20 45  1  0  0  0
 21 46  1  0  0  0
 21 61  1  0  0  0
 23 33  2  0  0  0
 23 38  1  0  0  0
 24 31  1  0  0  0
 24 47  1  0  0  0
 25 30  2  0  0  0
 25 48  1  0  0  0
 26 30  1  0  0  0
 26 31  2  0  0  0
 27 29  1  0  0  0
 27 32  1  0  0  0
 28 49  1  0  0  0
 28 50  1  0  0  0
 29 51  1  0  0  0
 30 52  1  0  0  0
 31 53  1  0  0  0
 33 54  1  0  0  0
 34 36  2  0  0  0
 34 55  1  0  0  0
 35 36  1  0  0  0
 35 56  1  0  0  0
 36 57  1  0  0  0
 37 39  1  0  0  0
 37 58  1  0  0  0
 38 39  2  0  0  0
 38 59  1  0  0  0
 39 60  1  0  0  0
M  CHG  1  21   1
M  END
> <chembl_id>
CHEMBL184887

> <chembl_pref_name>
None

> <s_m_source_file>
sdf/actives_sanitized.sdf

> <i_m_source_file_index>
54

> <i_lp_mmshare_version>
49012

> <i_m_ct_stereo_status>
1

> <i_f3d_flags>
0

> <s_epik_input>
W2NIXTFbY0hdW2NIXW5bY0hdYzEtYyhbY0hdMilubigtYzNbY0hdYygvQyg9Ti9bSF0pW05IMl0pW2NIXVtjSF1bY0hdMyljMkMoPU8pW05IXWMoW2NIXVtjSF00KVtjSF1bY0hdYzQtbjVbY0hdbmMoYzU2KVtjSF1jKENsKVtjSF1bY0hdNg==

> <s_epik_cmdline>
J2VwaWtfcHl0aG9uJywgJy1waHQnLCAnMC41JywgJy1waCcsICc3LjUnLCAnLW50JywgJy1tYScsICcyMDAnLCAnLWltYWUnLCAnPGluZmlsZS5tYWU+JywgJy1vbWFlJywgJzxvdXRmaWxlLm1hZT4n

> <r_lp_tautomer_probability>
1

> <r_epik_Ionization_Penalty>
  0.0049

> <r_epik_Ionization_Penalty_Charging>
  0.0010

> <r_epik_Ionization_Penalty_Neutral>
  0.0039

> <r_epik_State_Penalty>
 -0.0000

> <r_epik_Charging_Adjusted_Penalty>
0.000984797499885888

> <i_epik_Tot_Q>
1

> <i_epik_Tot_abs_Q>
1

> <s_epik_Chemistry_Notes>
This compound has an imine and may undergo hydrolysis.

> <s_lp_Force_Field>
OPLS3e

> <r_lp_Energy>
56.293394

> <b_lp_Chiralities_Consistent>
1

> <s_lp_Variant>
sdf/actives_sanitized.sdf:54-1

$$$$
sdf/actives_sanitized.sdf:55
                    3D
 Schrodinger Suite 2020-1.
 64 69  0  0  1  0            999 V2000
    1.8557    1.1598    2.0204 O   0  0  0  0  0  0
   -0.5162   -4.1998   -4.4151 C   0  0  0  0  0  0
    2.2482    0.5714    1.0119 C   0  0  0  0  0  0
   -2.1333    3.2688    0.8601 C   0  0  0  0  0  0
   -0.0598    0.0861    0.0737 C   0  0  2  0  0  0
    8.8081   -0.8485    0.6817 C   0  0  0  0  0  0
   -0.4464    3.8389   -0.7702 C   0  0  0  0  0  0
    8.4489    0.2893   -1.1555 N   0  0  0  0  0  0
    0.0137    2.5204   -0.7400 C   0  0  0  0  0  0
    6.4699   -0.0132    0.2088 C   0  0  0  0  0  0
    3.7225    0.3598    0.7575 C   0  0  0  0  0  0
   -0.6119   -0.7753    1.2632 C   0  0  0  0  0  0
   -0.2387   -6.7060   -4.5435 C   0  0  0  0  0  0
    4.0857   -0.3790    3.3989 Cl  0  0  0  0  0  0
    9.6996   -0.0917   -0.9999 C   0  0  0  0  0  0
    1.4214    0.0937    0.0569 N   0  0  0  0  0  0
    5.5881    0.3787   -0.8061 C   0  0  0  0  0  0
    5.9641   -0.2262    1.4970 C   0  0  0  0  0  0
    9.9728   -0.7904    0.0904 N   0  0  0  0  0  0
   -0.1150   -5.4177   -2.3727 C   0  0  0  0  0  0
    4.2344    0.5586   -0.5339 C   0  0  0  0  0  0
   -0.5741    1.5566    0.0995 C   0  0  0  0  0  0
   -0.2868   -5.4096   -3.7565 C   0  0  0  0  0  0
   -0.6008   -0.5425   -1.2505 C   0  0  0  0  0  0
   10.7594    0.2261   -2.0308 C   0  0  0  0  0  0
   -0.0587   -2.2228    1.2927 C   0  0  0  0  0  0
    4.6072   -0.0494    1.7775 C   0  0  0  0  0  0
   -0.0309   -4.1069   -0.3532 N   0  0  0  0  0  0
   -0.1548   -2.8197   -0.1047 C   0  0  0  0  0  0
    0.2305    4.8593   -1.6669 C   0  0  0  0  0  0
   -0.5741   -2.9914   -3.7146 C   0  0  0  0  0  0
   -0.3983   -2.9941   -2.3179 C   0  0  0  0  0  0
    7.8515   -0.1946   -0.0553 N   0  0  0  0  0  0
   -0.3808   -2.0522   -1.2592 C   0  0  0  0  0  0
   -1.5197    4.2117    0.0397 C   0  0  0  0  0  0
   -1.6716    1.9532    0.8835 C   0  0  0  0  0  0
   -0.1731   -4.2307   -1.6906 N   0  0  0  0  0  0
   -0.6531   -4.1918   -5.4871 H   0  0  0  0  0  0
   -2.9705    3.5569    1.4785 H   0  0  0  0  0  0
    8.5719   -1.3376    1.6147 H   0  0  0  0  0  0
    0.8401    2.2432   -1.3787 H   0  0  0  0  0  0
   -0.4202   -0.2902    2.2212 H   0  0  0  0  0  0
   -1.6980   -0.8508    1.1859 H   0  0  0  0  0  0
   -0.2172   -7.5804   -3.8915 H   0  0  0  0  0  0
    0.6387   -6.7248   -5.1906 H   0  0  0  0  0  0
   -1.1192   -6.7904   -5.1813 H   0  0  0  0  0  0
    1.8315   -0.5869   -0.5655 H   0  0  0  0  0  0
    5.9399    0.5472   -1.8137 H   0  0  0  0  0  0
    6.6194   -0.5303    2.2999 H   0  0  0  0  0  0
    0.0619   -6.3142   -1.7954 H   0  0  0  0  0  0
    3.5870    0.8695   -1.3421 H   0  0  0  0  0  0
   -0.1181   -0.0837   -2.1151 H   0  0  0  0  0  0
   -1.6679   -0.3427   -1.3643 H   0  0  0  0  0  0
   11.6740   -0.3569   -1.9136 H   0  0  0  0  0  0
   10.9874    1.2915   -2.0723 H   0  0  0  0  0  0
   10.3894   -0.0089   -3.0294 H   0  0  0  0  0  0
    0.9805   -2.2106    1.6230 H   0  0  0  0  0  0
   -0.6131   -2.8176    2.0197 H   0  0  0  0  0  0
    0.0058    5.8808   -1.3574 H   0  0  0  0  0  0
   -0.0795    4.7226   -2.7033 H   0  0  0  0  0  0
    1.3142    4.7434   -1.6212 H   0  0  0  0  0  0
   -0.7525   -2.0667   -4.2432 H   0  0  0  0  0  0
   -1.8852    5.2283    0.0309 H   0  0  0  0  0  0
   -2.1842    1.2584    1.5297 H   0  0  0  0  0  0
  1  3  2  0  0  0
  2 23  1  0  0  0
  2 31  2  0  0  0
  2 38  1  0  0  0
  3 16  1  0  0  0
  3 11  1  0  0  0
  4 35  2  0  0  0
  4 36  1  0  0  0
  4 39  1  0  0  0
  5 16  1  0  0  0
  5 22  1  0  0  0
  5 12  1  0  0  0
  5 24  1  0  0  0
  6 19  2  0  0  0
  6 33  1  0  0  0
  6 40  1  0  0  0
  7 30  1  0  0  0
  7  9  2  0  0  0
  7 35  1  0  0  0
  8 15  2  0  0  0
  8 33  1  0  0  0
  9 22  1  0  0  0
  9 41  1  0  0  0
 10 17  2  0  0  0
 10 33  1  0  0  0
 10 18  1  0  0  0
 11 21  2  0  0  0
 11 27  1  0  0  0
 12 26  1  0  0  0
 12 42  1  0  0  0
 12 43  1  0  0  0
 13 23  1  0  0  0
 13 44  1  0  0  0
 13 45  1  0  0  0
 13 46  1  0  0  0
 14 27  1  0  0  0
 15 19  1  0  0  0
 15 25  1  0  0  0
 16 47  1  0  0  0
 17 21  1  0  0  0
 17 48  1  0  0  0
 18 27  2  0  0  0
 18 49  1  0  0  0
 20 23  2  0  0  0
 20 37  1  0  0  0
 20 50  1  0  0  0
 21 51  1  0  0  0
 22 36  2  0  0  0
 24 34  1  0  0  0
 24 52  1  0  0  0
 24 53  1  0  0  0
 25 54  1  0  0  0
 25 55  1  0  0  0
 25 56  1  0  0  0
 26 29  1  0  0  0
 26 57  1  0  0  0
 26 58  1  0  0  0
 28 37  1  0  0  0
 28 29  2  0  0  0
 29 34  1  0  0  0
 30 59  1  0  0  0
 30 60  1  0  0  0
 30 61  1  0  0  0
 31 32  1  0  0  0
 31 62  1  0  0  0
 32 37  1  0  0  0
 32 34  2  0  0  0
 35 63  1  0  0  0
 36 64  1  0  0  0
M  END
> <chembl_id>
CHEMBL3628838

> <chembl_pref_name>
None

> <i_m_ct_stereo_status>
1

> <s_m_source_file>
sdf/actives_sanitized.sdf

> <i_m_source_file_index>
55

> <i_lp_mmshare_version>
49012

> <i_f3d_flags>
0

> <s_epik_input>
W0NIM11jMW5uKFtjSF1uMSktYzJbY0hdW2NIXWMoYyhDbClbY0hdMilDKD1PKVtOSF1bQ0BAXShbQ0gyXVtDSDJdMykoYyhbY0hdYzRbQ0gzXSlbY0hdW2NIXVtjSF00KVtDSDJdYyhjMzUpYzZuKG41KVtjSF1jKFtDSDNdKVtjSF1bY0hdNg==

> <s_epik_cmdline>
J2VwaWtfcHl0aG9uJywgJy1waHQnLCAnMC41JywgJy1waCcsICc3LjUnLCAnLW50JywgJy1tYScsICcyMDAnLCAnLWltYWUnLCAnPGluZmlsZS5tYWU+JywgJy1vbWFlJywgJzxvdXRmaWxlLm1hZT4n

> <r_lp_tautomer_probability>
1

> <r_epik_Ionization_Penalty>
  0.0001

> <r_epik_Ionization_Penalty_Charging>
  0.0000

> <r_epik_Ionization_Penalty_Neutral>
  0.0001

> <r_epik_State_Penalty>
 -0.0000

> <r_epik_Charging_Adjusted_Penalty>
0

> <i_epik_Tot_Q>
0

> <i_epik_Tot_abs_Q>
0

> <s_lp_Force_Field>
OPLS3e

> <r_lp_Energy>
40.704057

> <b_lp_Chiralities_Consistent>
1

> <s_lp_Variant>
sdf/actives_sanitized.sdf:55-1

$$$$
sdf/actives_sanitized.sdf:56
                    3D
 Schrodinger Suite 2020-1.
 57 61  0  0  1  0            999 V2000
   -1.4798   -2.8060   -5.2264 C   0  0  0  0  0  0
   -2.6175   -3.2043   -4.4974 C   0  0  0  0  0  0
   -2.7925   -2.8332   -3.1571 C   0  0  0  0  0  0
   -0.4841   -2.0243   -4.6293 C   0  0  0  0  0  0
   -1.2980   -3.2165   -6.6823 C   0  0  0  0  0  0
   -3.7000   -4.0544   -5.1504 C   0  0  0  0  0  0
   -0.6393   -1.6457   -3.2904 C   0  0  0  0  0  0
   -1.7891   -2.0554   -2.5772 C   0  0  0  0  0  0
   -1.6096   -1.5138   -1.3259 N   0  0  0  0  0  0
   -0.4094   -0.8396   -1.3352 C   0  0  0  0  0  0
    0.1911   -0.8933   -2.5019 N   0  0  0  0  0  0
    0.1023   -0.0901   -0.1065 C   0  0  1  0  0  0
    1.6524    0.0309   -0.0904 C   0  0  0  0  0  0
    2.1995    0.6312    1.1294 N   0  0  0  0  0  0
    2.5143    1.9306    1.2883 C   0  0  0  0  0  0
    2.9655    2.3320    2.6706 C   0  0  0  0  0  0
    2.3822    2.7784    0.4035 O   0  0  0  0  0  0
   -0.5929    1.2650    0.0855 C   0  0  0  0  0  0
   -1.0308    1.6448    1.3596 C   0  0  0  0  0  0
   -1.6266    2.8877    1.5542 C   0  0  0  0  0  0
   -1.7846    3.7545    0.4756 C   0  0  0  0  0  0
   -1.3515    3.3878   -0.7964 C   0  0  0  0  0  0
   -0.7542    2.1455   -0.9914 C   0  0  0  0  0  0
    2.3884    3.4709    3.2497 C   0  0  0  0  0  0
    2.7694    3.9036    4.5178 C   0  0  0  0  0  0
    3.7519    3.2105    5.2310 C   0  0  0  0  0  0
    4.3514    2.0861    4.6535 C   0  0  0  0  0  0
    3.9755    1.6469    3.3818 C   0  0  0  0  0  0
    4.8223    0.2770    2.7369 Cl  0  0  0  0  0  0
    4.1408    3.6455    6.5164 N   0  0  0  0  0  0
    4.0954    4.9147    7.0511 C   0  0  0  0  0  0
    4.5414    4.9494    8.2818 N   0  0  0  0  0  0
    4.9084    3.6488    8.6112 N   0  0  0  0  0  0
    4.6634    2.9101    7.5580 C   0  0  0  0  0  0
   -2.3602    4.9632    0.6659 F   0  0  0  0  0  0
   -3.6648   -3.1366   -2.5965 H   0  0  0  0  0  0
    0.3891   -1.7178   -5.1869 H   0  0  0  0  0  0
   -0.3478   -2.8749   -7.0950 H   0  0  0  0  0  0
   -2.1024   -2.8091   -7.2954 H   0  0  0  0  0  0
   -1.3300   -4.3023   -6.7770 H   0  0  0  0  0  0
   -4.5372   -4.2508   -4.4790 H   0  0  0  0  0  0
   -3.2891   -5.0124   -5.4704 H   0  0  0  0  0  0
   -4.0934   -3.5531   -6.0352 H   0  0  0  0  0  0
   -2.2116   -1.5691   -0.5171 H   0  0  0  0  0  0
   -0.1559   -0.6993    0.7625 H   0  0  0  0  0  0
    2.0915   -0.9638   -0.1778 H   0  0  0  0  0  0
    1.9977    0.5761   -0.9722 H   0  0  0  0  0  0
    2.3854   -0.0028    1.8929 H   0  0  0  0  0  0
   -0.9009    0.9829    2.2034 H   0  0  0  0  0  0
   -1.9606    3.1800    2.5387 H   0  0  0  0  0  0
   -1.4723    4.0666   -1.6277 H   0  0  0  0  0  0
   -0.4081    1.8756   -1.9785 H   0  0  0  0  0  0
    1.6244    4.0267    2.7232 H   0  0  0  0  0  0
    2.2888    4.7757    4.9369 H   0  0  0  0  0  0
    5.1285    1.5523    5.1815 H   0  0  0  0  0  0
    3.7327    5.7504    6.4712 H   0  0  0  0  0  0
    4.8232    1.8461    7.4636 H   0  0  0  0  0  0
  1  2  2  0  0  0
  1  4  1  0  0  0
  1  5  1  0  0  0
  2  3  1  0  0  0
  2  6  1  0  0  0
  3  8  2  0  0  0
  3 36  1  0  0  0
  4  7  2  0  0  0
  4 37  1  0  0  0
  5 38  1  0  0  0
  5 39  1  0  0  0
  5 40  1  0  0  0
  6 41  1  0  0  0
  6 42  1  0  0  0
  6 43  1  0  0  0
  7  8  1  0  0  0
  7 11  1  0  0  0
  8  9  1  0  0  0
  9 10  1  0  0  0
  9 44  1  0  0  0
 10 11  2  0  0  0
 10 12  1  0  0  0
 12 13  1  0  0  0
 12 18  1  0  0  0
 12 45  1  0  0  0
 13 14  1  0  0  0
 13 46  1  0  0  0
 13 47  1  0  0  0
 14 15  1  0  0  0
 14 48  1  0  0  0
 15 16  1  0  0  0
 15 17  2  0  0  0
 16 24  2  0  0  0
 16 28  1  0  0  0
 18 19  2  0  0  0
 18 23  1  0  0  0
 19 20  1  0  0  0
 19 49  1  0  0  0
 20 21  2  0  0  0
 20 50  1  0  0  0
 21 22  1  0  0  0
 21 35  1  0  0  0
 22 23  2  0  0  0
 22 51  1  0  0  0
 23 52  1  0  0  0
 24 25  1  0  0  0
 24 53  1  0  0  0
 25 26  2  0  0  0
 25 54  1  0  0  0
 26 27  1  0  0  0
 26 30  1  0  0  0
 27 28  2  0  0  0
 27 55  1  0  0  0
 28 29  1  0  0  0
 30 31  1  0  0  0
 30 34  1  0  0  0
 31 32  2  0  0  0
 31 56  1  0  0  0
 32 33  1  0  0  0
 33 34  2  0  0  0
 34 57  1  0  0  0
M  END
> <chembl_id>
CHEMBL3627872

> <chembl_pref_name>
None

> <i_m_ct_stereo_status>
1

> <s_m_source_file>
sdf/actives_sanitized.sdf

> <i_m_source_file_index>
56

> <i_lp_mmshare_version>
49012

> <i_f3d_flags>
0

> <s_epik_input>
W2NIXTFjKFtDSDNdKWMoW0NIM10pW2NIXWMoYzEyKVtuSF1jKG4yKVtDQEhdKGMzW2NIXVtjSF1jKEYpW2NIXVtjSF0zKVtDSDJdW05IXUMoPU8pYzRbY0hdW2NIXWMoW2NIXWM0Q2wpLW41W2NIXW5uW2NIXTU=

> <s_epik_cmdline>
J2VwaWtfcHl0aG9uJywgJy1waHQnLCAnMC41JywgJy1waCcsICc3LjUnLCAnLW50JywgJy1tYScsICcyMDAnLCAnLWltYWUnLCAnPGluZmlsZS5tYWU+JywgJy1vbWFlJywgJzxvdXRmaWxlLm1hZT4n

> <r_lp_tautomer_probability>
1

> <r_epik_Ionization_Penalty>
  0.0167

> <r_epik_Ionization_Penalty_Charging>
  0.0000

> <r_epik_Ionization_Penalty_Neutral>
  0.0167

> <r_epik_State_Penalty>
  0.0132

> <r_epik_Charging_Adjusted_Penalty>
0.013171618342122

> <i_epik_Tot_Q>
0

> <i_epik_Tot_abs_Q>
0

> <s_lp_Force_Field>
OPLS3e

> <r_lp_Energy>
36.245565

> <b_lp_Chiralities_Consistent>
1

> <s_lp_Variant>
sdf/actives_sanitized.sdf:56-1

$$$$
sdf/actives_sanitized.sdf:57
                    3D
 Schrodinger Suite 2020-1.
 60 64  0  0  1  0            999 V2000
   -1.2578   -2.6956   -5.3503 C   0  0  0  0  0  0
   -2.2711   -3.3397   -4.6135 C   0  0  0  0  0  0
   -2.4602   -3.0789   -3.2495 C   0  0  0  0  0  0
   -0.4041   -1.7712   -4.7370 C   0  0  0  0  0  0
   -1.0616   -2.9863   -6.8329 C   0  0  0  0  0  0
   -3.1988   -4.3455   -5.2836 C   0  0  0  0  0  0
   -0.5756   -1.4984   -3.3745 C   0  0  0  0  0  0
   -1.5989   -2.1562   -2.6540 C   0  0  0  0  0  0
   -1.4755   -1.6570   -1.3786 N   0  0  0  0  0  0
   -0.4254   -0.7672   -1.3824 C   0  0  0  0  0  0
    0.1270   -0.6422   -2.5674 N   0  0  0  0  0  0
   -0.0192    0.0022   -0.1289 C   0  0  1  0  0  0
    1.4929    0.3598   -0.1163 C   0  0  0  0  0  0
    1.9508    1.0651    1.0827 N   0  0  0  0  0  0
    2.1908    0.4862    2.2720 C   0  0  0  0  0  0
    2.7239    1.4170    3.3270 C   0  0  0  0  0  0
    2.0214   -0.7088    2.5156 O   0  0  0  0  0  0
   -0.9099    1.2294    0.0949 C   0  0  0  0  0  0
   -1.6357    1.3574    1.2837 C   0  0  0  0  0  0
   -2.4374    2.4754    1.4970 C   0  0  0  0  0  0
   -2.5141    3.4658    0.5207 C   0  0  0  0  0  0
   -1.7952    3.3489   -0.6665 C   0  0  0  0  0  0
   -0.9926    2.2315   -0.8792 C   0  0  0  0  0  0
    4.1012    1.7069    3.3912 C   0  0  0  0  0  0
    4.5909    2.5676    4.3740 C   0  0  0  0  0  0
    3.7316    3.1506    5.3109 C   0  0  0  0  0  0
    2.3637    2.8587    5.2488 C   0  0  0  0  0  0
    1.8576    2.0022    4.2707 C   0  0  0  0  0  0
    0.1505    1.6977    4.2782 Cl  0  0  0  0  0  0
    4.2473    4.0197    6.3040 N   0  0  0  0  0  0
    5.4247    4.7256    6.3242 C   0  0  0  0  0  0
    5.5362    5.4131    7.4308 N   0  0  0  0  0  0
    4.4110    5.1141    8.0616 C   0  0  0  0  0  0
    3.5955    4.2823    7.4471 N   0  0  0  0  0  0
    5.2459    1.0242    2.2803 Cl  0  0  0  0  0  0
    4.0955    5.6723    9.4315 C   0  0  0  0  0  0
   -3.2375   -3.5707   -2.6830 H   0  0  0  0  0  0
    0.3734   -1.2759   -5.3004 H   0  0  0  0  0  0
   -0.2274   -2.4281   -7.2598 H   0  0  0  0  0  0
   -1.9617   -2.7295   -7.3920 H   0  0  0  0  0  0
   -0.8686   -4.0478   -6.9897 H   0  0  0  0  0  0
   -3.9458   -4.7454   -4.5966 H   0  0  0  0  0  0
   -2.6254   -5.1820   -5.6843 H   0  0  0  0  0  0
   -3.7258   -3.8788   -6.1162 H   0  0  0  0  0  0
   -2.0232   -1.8691   -0.5573 H   0  0  0  0  0  0
   -0.1733   -0.6671    0.7201 H   0  0  0  0  0  0
    2.0926   -0.5419   -0.2599 H   0  0  0  0  0  0
    1.7265    1.0002   -0.9679 H   0  0  0  0  0  0
    2.1067    2.0580    0.9875 H   0  0  0  0  0  0
   -1.5791    0.5936    2.0456 H   0  0  0  0  0  0
   -2.9961    2.5742    2.4159 H   0  0  0  0  0  0
   -3.1365    4.3329    0.6858 H   0  0  0  0  0  0
   -1.8590    4.1216   -1.4184 H   0  0  0  0  0  0
   -0.4345    2.1467   -1.8004 H   0  0  0  0  0  0
    5.6519    2.7678    4.4048 H   0  0  0  0  0  0
    1.6791    3.2978    5.9607 H   0  0  0  0  0  0
    6.1259    4.6845    5.5038 H   0  0  0  0  0  0
    3.3076    5.1282    9.9538 H   0  0  0  0  0  0
    3.8734    6.7393    9.4040 H   0  0  0  0  0  0
    4.9717    5.5926   10.0757 H   0  0  0  0  0  0
  1  2  2  0  0  0
  1  4  1  0  0  0
  1  5  1  0  0  0
  2  3  1  0  0  0
  2  6  1  0  0  0
  3  8  2  0  0  0
  3 37  1  0  0  0
  4  7  2  0  0  0
  4 38  1  0  0  0
  5 39  1  0  0  0
  5 40  1  0  0  0
  5 41  1  0  0  0
  6 42  1  0  0  0
  6 43  1  0  0  0
  6 44  1  0  0  0
  7  8  1  0  0  0
  7 11  1  0  0  0
  8  9  1  0  0  0
  9 10  1  0  0  0
  9 45  1  0  0  0
 10 11  2  0  0  0
 10 12  1  0  0  0
 12 13  1  0  0  0
 12 18  1  0  0  0
 12 46  1  0  0  0
 13 14  1  0  0  0
 13 47  1  0  0  0
 13 48  1  0  0  0
 14 15  1  0  0  0
 14 49  1  0  0  0
 15 16  1  0  0  0
 15 17  2  0  0  0
 16 24  2  0  0  0
 16 28  1  0  0  0
 18 19  2  0  0  0
 18 23  1  0  0  0
 19 20  1  0  0  0
 19 50  1  0  0  0
 20 21  2  0  0  0
 20 51  1  0  0  0
 21 22  1  0  0  0
 21 52  1  0  0  0
 22 23  2  0  0  0
 22 53  1  0  0  0
 23 54  1  0  0  0
 24 25  1  0  0  0
 24 35  1  0  0  0
 25 26  2  0  0  0
 25 55  1  0  0  0
 26 27  1  0  0  0
 26 30  1  0  0  0
 27 28  2  0  0  0
 27 56  1  0  0  0
 28 29  1  0  0  0
 30 31  1  0  0  0
 30 34  1  0  0  0
 31 32  2  0  0  0
 31 57  1  0  0  0
 32 33  1  0  0  0
 33 34  2  0  0  0
 33 36  1  0  0  0
 36 58  1  0  0  0
 36 59  1  0  0  0
 36 60  1  0  0  0
M  END
> <chembl_id>
CHEMBL3627869

> <chembl_pref_name>
None

> <i_m_ct_stereo_status>
1

> <s_m_source_file>
sdf/actives_sanitized.sdf

> <i_m_source_file_index>
57

> <i_lp_mmshare_version>
49012

> <i_f3d_flags>
0

> <s_epik_input>
W2NIXTFjKFtDSDNdKWMoW0NIM10pW2NIXWMoYzEyKVtuSF1jKG4yKVtDQEhdKGMzW2NIXVtjSF1bY0hdW2NIXVtjSF0zKVtDSDJdW05IXUMoPU8pYzRjKENsKVtjSF1jKFtjSF1jNENsKS1uNVtjSF1uYyhuNSlbQ0gzXQ==

> <s_epik_cmdline>
J2VwaWtfcHl0aG9uJywgJy1waHQnLCAnMC41JywgJy1waCcsICc3LjUnLCAnLW50JywgJy1tYScsICcyMDAnLCAnLWltYWUnLCAnPGluZmlsZS5tYWU+JywgJy1vbWFlJywgJzxvdXRmaWxlLm1hZT4n

> <r_lp_tautomer_probability>
1

> <r_epik_Ionization_Penalty>
  0.0168

> <r_epik_Ionization_Penalty_Charging>
  0.0000

> <r_epik_Ionization_Penalty_Neutral>
  0.0168

> <r_epik_State_Penalty>
  0.0132

> <r_epik_Charging_Adjusted_Penalty>
0.013171618342122

> <i_epik_Tot_Q>
0

> <i_epik_Tot_abs_Q>
0

> <s_lp_Force_Field>
OPLS3e

> <r_lp_Energy>
26.479634

> <b_lp_Chiralities_Consistent>
1

> <s_lp_Variant>
sdf/actives_sanitized.sdf:57-1

$$$$
sdf/actives_sanitized.sdf:58
                    3D
 Schrodinger Suite 2020-1.
 60 65  0  0  1  0            999 V2000
   -0.5658    1.6267   -0.0152 C   0  0  0  0  0  0
   -1.5529    2.1964    0.8074 C   0  0  0  0  0  0
   -1.9364    3.5251    0.6446 C   0  0  0  0  0  0
   -1.3488    4.2981   -0.3513 C   0  0  0  0  0  0
   -0.3844    3.7509   -1.1909 C   0  0  0  0  0  0
   -0.0030    2.4228   -1.0274 C   0  0  0  0  0  0
   -0.3487   -5.0913   -3.7947 C   0  0  0  0  0  0
   -0.1637   -5.3173   -2.4307 C   0  0  0  0  0  0
   -0.6919   -2.7108   -3.4148 C   0  0  0  0  0  0
   -0.6086   -3.8079   -4.2690 C   0  0  0  0  0  0
   -0.5005   -2.9425   -2.0450 C   0  0  0  0  0  0
   -0.2417   -4.2417   -1.5240 C   0  0  0  0  0  0
   -0.1109   -4.1152   -0.0916 C   0  0  0  0  0  0
   -0.5109   -2.0663   -0.9766 N   0  0  0  0  0  0
   -0.3058   -2.7626    0.2099 C   0  0  0  0  0  0
   -0.2612   -2.0236    1.5530 C   0  0  0  0  0  0
   -0.6900   -0.5489    1.4035 C   0  0  0  0  0  0
   -0.1354    0.1347    0.1158 C   0  0  1  0  0  0
   -0.7927   -0.6244   -1.0726 C   0  0  0  0  0  0
    1.3415    0.0520    0.0239 N   0  0  0  0  0  0
    2.2439    0.5836    0.8720 C   0  0  0  0  0  0
    3.6770    0.3007    0.5117 C   0  0  0  0  0  0
    1.9674    1.2808    1.8480 O   0  0  0  0  0  0
    4.3868    1.1828   -0.3267 C   0  0  0  0  0  0
    5.7177    0.9205   -0.6538 C   0  0  0  0  0  0
    6.3685   -0.2144   -0.1592 C   0  0  0  0  0  0
    5.6617   -1.0918    0.6720 C   0  0  0  0  0  0
    4.3310   -0.8433    1.0096 C   0  0  0  0  0  0
    3.5441   -1.9856    2.0497 Cl  0  0  0  0  0  0
    7.7216   -0.4615   -0.4974 N   0  0  0  0  0  0
   -0.2584   -6.2579   -4.7618 C   0  0  0  0  0  0
    8.6911    0.4209   -0.9237 C   0  0  0  0  0  0
    9.8269   -0.1913   -1.1410 N   0  0  0  0  0  0
    9.5798   -1.5264   -0.8430 N   0  0  0  0  0  0
    8.2672   -1.6884   -0.4421 N   0  0  0  0  0  0
    0.1750   -5.1994    0.8642 C   0  0  0  0  0  0
    0.4463   -4.8764    2.0421 O   0  0  0  0  0  0
    0.1295   -6.3728    0.4337 O   0  5  0  0  0  0
    3.6662    2.6155   -0.9888 Cl  0  0  0  0  0  0
   -2.0365    1.6316    1.5884 H   0  0  0  0  0  0
   -2.6897    3.9540    1.2888 H   0  0  0  0  0  0
   -1.6471    5.3285   -0.4768 H   0  0  0  0  0  0
    0.0640    4.3526   -1.9678 H   0  0  0  0  0  0
    0.7393    2.0111   -1.6955 H   0  0  0  0  0  0
    0.0375   -6.3188   -2.0806 H   0  0  0  0  0  0
   -0.8926   -1.7252   -3.8078 H   0  0  0  0  0  0
   -0.7493   -3.6492   -5.3284 H   0  0  0  0  0  0
   -0.8993   -2.5141    2.2887 H   0  0  0  0  0  0
    0.7495   -2.0618    1.9553 H   0  0  0  0  0  0
   -1.7813   -0.5412    1.3798 H   0  0  0  0  0  0
   -0.4125    0.0079    2.2996 H   0  0  0  0  0  0
   -0.4240   -0.2455   -2.0274 H   0  0  0  0  0  0
   -1.8759   -0.4894   -1.0754 H   0  0  0  0  0  0
    1.6809   -0.7119   -0.5423 H   0  0  0  0  0  0
    6.2373    1.6095   -1.3036 H   0  0  0  0  0  0
    6.1423   -1.9746    1.0693 H   0  0  0  0  0  0
   -0.3170   -5.9381   -5.8031 H   0  0  0  0  0  0
   -1.0600   -6.9712   -4.5678 H   0  0  0  0  0  0
    0.6870   -6.7843   -4.6256 H   0  0  0  0  0  0
    8.4854    1.4749   -1.0363 H   0  0  0  0  0  0
  1  2  2  0  0  0
  1  6  1  0  0  0
  1 18  1  0  0  0
  2  3  1  0  0  0
  2 40  1  0  0  0
  3  4  2  0  0  0
  3 41  1  0  0  0
  4  5  1  0  0  0
  4 42  1  0  0  0
  5  6  2  0  0  0
  5 43  1  0  0  0
  6 44  1  0  0  0
  7  8  2  0  0  0
  7 10  1  0  0  0
  7 31  1  0  0  0
  8 12  1  0  0  0
  8 45  1  0  0  0
  9 11  1  0  0  0
  9 10  2  0  0  0
  9 46  1  0  0  0
 10 47  1  0  0  0
 11 12  2  0  0  0
 11 14  1  0  0  0
 12 13  1  0  0  0
 13 15  2  0  0  0
 13 36  1  0  0  0
 14 15  1  0  0  0
 14 19  1  0  0  0
 15 16  1  0  0  0
 16 17  1  0  0  0
 16 48  1  0  0  0
 16 49  1  0  0  0
 17 18  1  0  0  0
 17 50  1  0  0  0
 17 51  1  0  0  0
 18 19  1  0  0  0
 18 20  1  0  0  0
 19 52  1  0  0  0
 19 53  1  0  0  0
 20 21  1  0  0  0
 20 54  1  0  0  0
 21 22  1  0  0  0
 21 23  2  0  0  0
 22 24  2  0  0  0
 22 28  1  0  0  0
 24 25  1  0  0  0
 24 39  1  0  0  0
 25 26  2  0  0  0
 25 55  1  0  0  0
 26 27  1  0  0  0
 26 30  1  0  0  0
 27 28  2  0  0  0
 27 56  1  0  0  0
 28 29  1  0  0  0
 30 32  1  0  0  0
 30 35  1  0  0  0
 31 57  1  0  0  0
 31 58  1  0  0  0
 31 59  1  0  0  0
 32 33  2  0  0  0
 32 60  1  0  0  0
 33 34  1  0  0  0
 34 35  2  0  0  0
 36 37  2  0  0  0
 36 38  1  0  0  0
M  CHG  1  38  -1
M  END
> <chembl_id>
CHEMBL3629113

> <chembl_pref_name>
None

> <i_m_ct_stereo_status>
1

> <s_m_source_file>
sdf/actives_sanitized.sdf

> <i_m_source_file_index>
58

> <i_lp_mmshare_version>
49012

> <i_f3d_flags>
0

> <s_epik_input>
W2NIXTFbY0hdYyhbQ0gzXSlbY0hdYyhjMTIpYyhDKD1PKVtPSF0pYzNuMltDSDJdW0NAXShbQ0gyXVtDSDJdMykoYzRbY0hdW2NIXVtjSF1bY0hdW2NIXTQpW05IXUMoPU8pYzVjKENsKVtjSF1jKFtjSF1jNUNsKS1uNltjSF1ubm42

> <s_epik_cmdline>
J2VwaWtfcHl0aG9uJywgJy1waHQnLCAnMC41JywgJy1waCcsICc3LjUnLCAnLW50JywgJy1tYScsICcyMDAnLCAnLWltYWUnLCAnPGluZmlsZS5tYWU+JywgJy1vbWFlJywgJzxvdXRmaWxlLm1hZT4n

> <r_lp_tautomer_probability>
1

> <r_epik_Ionization_Penalty>
  0.0021

> <r_epik_Ionization_Penalty_Charging>
  0.0018

> <r_epik_Ionization_Penalty_Neutral>
  0.0002

> <r_epik_State_Penalty>
 -0.0000

> <r_epik_Charging_Adjusted_Penalty>
0.00183271537175675

> <i_epik_Tot_Q>
-1

> <i_epik_Tot_abs_Q>
1

> <s_lp_Force_Field>
OPLS3e

> <r_lp_Energy>
47.637352

> <b_lp_Chiralities_Consistent>
1

> <s_lp_Variant>
sdf/actives_sanitized.sdf:58-1

$$$$
sdf/actives_sanitized.sdf:59
                    3D
 Schrodinger Suite 2020-1.
 63 68  0  0  1  0            999 V2000
   -0.4642    1.8680   -0.0888 C   0  0  0  0  0  0
   -1.4857    2.3692   -0.9112 C   0  0  0  0  0  0
   -1.8492    3.7121   -0.8596 C   0  0  0  0  0  0
   -1.2064    4.5691    0.0278 C   0  0  0  0  0  0
   -0.2070    4.0914    0.8690 C   0  0  0  0  0  0
    0.1545    2.7486    0.8153 C   0  0  0  0  0  0
   -5.3981   -0.9083   -3.4334 C   0  0  0  0  0  0
   -5.3238   -1.4743   -2.1607 C   0  0  0  0  0  0
   -3.0611   -0.2330   -3.3366 C   0  0  0  0  0  0
   -4.2814   -0.3023   -4.0037 C   0  0  0  0  0  0
   -2.9945   -0.7956   -2.0545 C   0  0  0  0  0  0
   -4.1137   -1.4297   -1.4380 C   0  0  0  0  0  0
   -3.6909   -1.9100   -0.1352 C   0  0  0  0  0  0
   -1.9440   -0.8852   -1.1650 N   0  0  0  0  0  0
   -2.3466   -1.5324   -0.0138 C   0  0  0  0  0  0
   -1.2869   -1.6653    1.0785 C   0  0  0  0  0  0
   -0.6351   -0.2710    1.2327 C   0  0  0  0  0  0
   -0.0608    0.3613   -0.0920 C   0  0  1  0  0  0
   -0.5606   -0.4379   -1.3599 C   0  0  0  0  0  0
    1.4154    0.2567   -0.0417 N   0  0  0  0  0  0
    2.3053    0.7196   -0.9474 C   0  0  0  0  0  0
    3.7540    0.3951   -0.6617 C   0  0  0  0  0  0
    1.9855    1.3822   -1.9353 O   0  0  0  0  0  0
    4.2283    0.4587    0.6588 C   0  0  0  0  0  0
    5.5568    0.1694    0.9615 C   0  0  0  0  0  0
    6.4450   -0.1955   -0.0536 C   0  0  0  0  0  0
    5.9833   -0.2730   -1.3714 C   0  0  0  0  0  0
    4.6521    0.0131   -1.6823 C   0  0  0  0  0  0
    4.1770   -0.1546   -3.3422 Cl  0  0  0  0  0  0
    7.7928   -0.4863    0.2479 N   0  0  0  0  0  0
   -6.7067   -0.9683   -4.2010 C   0  0  0  0  0  0
    8.3314   -0.9765    1.4175 C   0  0  0  0  0  0
    9.6299   -1.1268    1.3389 N   0  0  0  0  0  0
   10.0031   -0.7204    0.0618 N   0  0  0  0  0  0
    8.9065   -0.3528   -0.5523 C   0  0  0  0  0  0
   -4.4229   -2.6392    0.8835 C   0  0  0  0  0  0
   -3.8944   -3.0857    1.8994 O   0  0  0  0  0  0
   -5.7256   -2.8068    0.6463 N   0  0  0  0  0  0
   -2.0114    1.7382   -1.6072 H   0  0  0  0  0  0
   -2.6298    4.0865   -1.5053 H   0  0  0  0  0  0
   -1.4891    5.6108    0.0682 H   0  0  0  0  0  0
    0.2835    4.7579    1.5631 H   0  0  0  0  0  0
    0.9242    2.3923    1.4842 H   0  0  0  0  0  0
   -6.2016   -1.9445   -1.7453 H   0  0  0  0  0  0
   -2.2094    0.2412   -3.8015 H   0  0  0  0  0  0
   -4.3542    0.1280   -4.9922 H   0  0  0  0  0  0
   -1.6970   -1.9745    2.0382 H   0  0  0  0  0  0
   -0.5429   -2.4159    0.8086 H   0  0  0  0  0  0
   -1.3858    0.3845    1.6804 H   0  0  0  0  0  0
    0.1408   -0.3468    1.9970 H   0  0  0  0  0  0
    0.0437   -1.3394   -1.4806 H   0  0  0  0  0  0
   -0.4544    0.1375   -2.2799 H   0  0  0  0  0  0
    1.7592   -0.4756    0.5618 H   0  0  0  0  0  0
    3.5717    0.7483    1.4675 H   0  0  0  0  0  0
    5.8864    0.2422    1.9878 H   0  0  0  0  0  0
    6.6532   -0.5697   -2.1658 H   0  0  0  0  0  0
   -6.5971   -0.6293   -5.2321 H   0  0  0  0  0  0
   -7.4633   -0.3578   -3.7072 H   0  0  0  0  0  0
   -7.0790   -1.9932   -4.2281 H   0  0  0  0  0  0
    7.7040   -1.2032    2.2669 H   0  0  0  0  0  0
    8.8256    0.0267   -1.5602 H   0  0  0  0  0  0
   -6.1457   -2.4236   -0.1871 H   0  0  0  0  0  0
   -6.2986   -3.3108    1.3072 H   0  0  0  0  0  0
  1  2  2  0  0  0
  1  6  1  0  0  0
  1 18  1  0  0  0
  2  3  1  0  0  0
  2 39  1  0  0  0
  3  4  2  0  0  0
  3 40  1  0  0  0
  4  5  1  0  0  0
  4 41  1  0  0  0
  5  6  2  0  0  0
  5 42  1  0  0  0
  6 43  1  0  0  0
  7  8  2  0  0  0
  7 10  1  0  0  0
  7 31  1  0  0  0
  8 12  1  0  0  0
  8 44  1  0  0  0
  9 11  1  0  0  0
  9 10  2  0  0  0
  9 45  1  0  0  0
 10 46  1  0  0  0
 11 12  2  0  0  0
 11 14  1  0  0  0
 12 13  1  0  0  0
 13 15  2  0  0  0
 13 36  1  0  0  0
 14 15  1  0  0  0
 14 19  1  0  0  0
 15 16  1  0  0  0
 16 17  1  0  0  0
 16 47  1  0  0  0
 16 48  1  0  0  0
 17 18  1  0  0  0
 17 49  1  0  0  0
 17 50  1  0  0  0
 18 19  1  0  0  0
 18 20  1  0  0  0
 19 51  1  0  0  0
 19 52  1  0  0  0
 20 21  1  0  0  0
 20 53  1  0  0  0
 21 22  1  0  0  0
 21 23  2  0  0  0
 22 24  2  0  0  0
 22 28  1  0  0  0
 24 25  1  0  0  0
 24 54  1  0  0  0
 25 26  2  0  0  0
 25 55  1  0  0  0
 26 27  1  0  0  0
 26 30  1  0  0  0
 27 28  2  0  0  0
 27 56  1  0  0  0
 28 29  1  0  0  0
 30 32  1  0  0  0
 30 35  1  0  0  0
 31 57  1  0  0  0
 31 58  1  0  0  0
 31 59  1  0  0  0
 32 33  2  0  0  0
 32 60  1  0  0  0
 33 34  1  0  0  0
 34 35  2  0  0  0
 35 61  1  0  0  0
 36 37  2  0  0  0
 36 38  1  0  0  0
 38 62  1  0  0  0
 38 63  1  0  0  0
M  END
> <chembl_id>
CHEMBL3629110

> <chembl_pref_name>
None

> <i_m_ct_stereo_status>
1

> <s_m_source_file>
sdf/actives_sanitized.sdf

> <i_m_source_file_index>
59

> <i_lp_mmshare_version>
49012

> <i_f3d_flags>
0

> <s_epik_input>
W2NIXTFbY0hdYyhbQ0gzXSlbY0hdYyhjMTIpYyhDKD1PKVtOSDJdKWMzbjJbQ0gyXVtDQF0oW0NIMl1bQ0gyXTMpKGM0W2NIXVtjSF1bY0hdW2NIXVtjSF00KVtOSF1DKD1PKWM1W2NIXVtjSF1jKFtjSF1jNUNsKS1uNltjSF1ubltjSF02

> <s_epik_cmdline>
J2VwaWtfcHl0aG9uJywgJy1waHQnLCAnMC41JywgJy1waCcsICc3LjUnLCAnLW50JywgJy1tYScsICcyMDAnLCAnLWltYWUnLCAnPGluZmlsZS5tYWU+JywgJy1vbWFlJywgJzxvdXRmaWxlLm1hZT4n

> <r_lp_tautomer_probability>
1

> <r_epik_Ionization_Penalty>
  0.0000

> <r_epik_Ionization_Penalty_Charging>
  0.0000

> <r_epik_Ionization_Penalty_Neutral>
  0.0000

> <r_epik_State_Penalty>
 -0.0000

> <r_epik_Charging_Adjusted_Penalty>
0

> <i_epik_Tot_Q>
0

> <i_epik_Tot_abs_Q>
0

> <s_lp_Force_Field>
OPLS3e

> <r_lp_Energy>
49.342121

> <b_lp_Chiralities_Consistent>
1

> <s_lp_Variant>
sdf/actives_sanitized.sdf:59-1

$$$$
sdf/actives_sanitized.sdf:60
                    3D
 Schrodinger Suite 2020-1.
 74 79  0  0  1  0            999 V2000
   -5.2452    1.5849   -0.8387 C   0  0  0  0  0  0
   -4.1175    0.8266   -1.5682 C   0  0  2  0  0  0
   -2.7522    1.5658   -1.4469 C   0  0  0  0  0  0
   -2.0840    1.4859   -0.0484 C   0  0  0  0  0  0
   -0.5319    1.4336   -0.0715 C   0  0  0  0  0  0
    0.0962    0.0096   -0.2144 C   0  0  2  0  0  0
    1.5774    0.0052   -0.1218 N   0  0  0  0  0  0
    2.3607    1.0817   -0.7990 C   0  0  0  0  0  0
    3.8035    0.6450   -1.1721 C   0  0  0  0  0  0
    4.4256   -0.0733    0.0125 C   0  0  0  0  0  0
    3.6241   -0.8653    0.7523 C   0  0  0  0  0  0
    2.1964   -1.0102    0.5653 C   0  0  0  0  0  0
    1.6131   -2.0012    1.0089 O   0  0  0  0  0  0
    5.8994   -0.1469    0.1740 C   0  0  0  0  0  0
    6.4875    0.0838    1.4301 C   0  0  0  0  0  0
    5.7229    0.3867    2.5063 F   0  0  0  0  0  0
    7.8713    0.0201    1.5901 C   0  0  0  0  0  0
    8.6892   -0.2717    0.5023 C   0  0  0  0  0  0
    8.1250   -0.5004   -0.7510 C   0  0  0  0  0  0
    9.1543   -0.8642   -2.0905 Cl  0  0  0  0  0  0
    6.7377   -0.4385   -0.9172 C   0  0  0  0  0  0
    6.2117   -0.6817   -2.1418 F   0  0  0  0  0  0
   -0.4424   -0.7389   -1.4370 C   0  0  0  0  0  0
   -1.6160   -1.4854   -1.3163 C   0  0  0  0  0  0
   -2.2607   -1.9341   -2.4716 C   0  0  0  0  0  0
   -1.6345   -1.7350   -3.7080 C   0  0  0  0  0  0
   -0.4098   -1.0643   -3.7419 C   0  0  0  0  0  0
    0.1810   -0.5505   -2.6328 N   0  0  0  0  0  0
   -3.6185   -2.5217   -2.3628 C   0  0  0  0  0  0
   -3.7725   -3.7484   -1.7077 C   0  0  0  0  0  0
   -5.0294   -4.3303   -1.5586 C   0  0  0  0  0  0
   -6.1691   -3.6872   -2.0505 C   0  0  0  0  0  0
   -7.4524   -4.2471   -1.9457 N   0  0  0  0  0  0
   -8.0281   -5.0754   -0.9699 C   0  0  0  0  0  0
   -7.4658   -5.2556    0.3031 C   0  0  0  0  0  0
   -8.1205   -6.0801    1.2206 C   0  0  0  0  0  0
   -9.3196   -6.6951    0.8596 C   0  0  0  0  0  0
   -9.8291   -6.4559   -0.4167 C   0  0  0  0  0  0
   -9.2052   -5.6566   -1.3198 N   0  0  0  0  0  0
   -6.0267   -2.4685   -2.7160 C   0  0  0  0  0  0
   -4.7704   -1.8703   -2.8570 C   0  0  0  0  0  0
   -4.7281   -0.6505   -3.5519 N   0  0  0  0  0  0
   -4.4833    0.5847   -3.0572 C   0  0  0  0  0  0
   -4.5515    1.5555   -3.8101 O   0  0  0  0  0  0
   -6.1940    1.0505   -0.9073 H   0  0  0  0  0  0
   -5.3993    2.5816   -1.2555 H   0  0  0  0  0  0
   -5.0189    1.7020    0.2216 H   0  0  0  0  0  0
   -4.0248   -0.1359   -1.0704 H   0  0  0  0  0  0
   -2.0650    1.1711   -2.1943 H   0  0  0  0  0  0
   -2.8672    2.6138   -1.7299 H   0  0  0  0  0  0
   -2.4029    2.3559    0.5272 H   0  0  0  0  0  0
   -2.4579    0.6291    0.5133 H   0  0  0  0  0  0
   -0.1662    2.1067   -0.8475 H   0  0  0  0  0  0
   -0.1746    1.8557    0.8691 H   0  0  0  0  0  0
   -0.2791   -0.5370    0.6532 H   0  0  0  0  0  0
    1.8125    1.5328   -1.6259 H   0  0  0  0  0  0
    2.4588    1.8767   -0.0585 H   0  0  0  0  0  0
    3.7330   -0.0429   -2.0159 H   0  0  0  0  0  0
    4.4014    1.5008   -1.4873 H   0  0  0  0  0  0
    4.0658   -1.4729    1.5298 H   0  0  0  0  0  0
    8.3118    0.2014    2.5595 H   0  0  0  0  0  0
    9.7604   -0.3196    0.6338 H   0  0  0  0  0  0
   -2.0907   -1.6006   -0.3523 H   0  0  0  0  0  0
   -2.0964   -2.0753   -4.6235 H   0  0  0  0  0  0
    0.0972   -0.8931   -4.6799 H   0  0  0  0  0  0
   -2.9073   -4.2641   -1.3164 H   0  0  0  0  0  0
   -5.1024   -5.2920   -1.0732 H   0  0  0  0  0  0
   -8.1157   -3.9004   -2.6237 H   0  0  0  0  0  0
   -6.5526   -4.7609    0.5966 H   0  0  0  0  0  0
   -7.7057   -6.2344    2.2057 H   0  0  0  0  0  0
   -9.8442   -7.3351    1.5536 H   0  0  0  0  0  0
  -10.7584   -6.9073   -0.7319 H   0  0  0  0  0  0
   -6.9022   -1.9747   -3.1155 H   0  0  0  0  0  0
   -5.0272   -0.6969   -4.5148 H   0  0  0  0  0  0
  1  2  1  0  0  0
  1 45  1  0  0  0
  1 46  1  0  0  0
  1 47  1  0  0  0
  2  3  1  0  0  0
  2 43  1  0  0  0
  2 48  1  0  0  0
  3  4  1  0  0  0
  3 49  1  0  0  0
  3 50  1  0  0  0
  4  5  1  0  0  0
  4 51  1  0  0  0
  4 52  1  0  0  0
  5  6  1  0  0  0
  5 53  1  0  0  0
  5 54  1  0  0  0
  6  7  1  0  0  0
  6 23  1  0  0  0
  6 55  1  0  0  0
  7  8  1  0  0  0
  7 12  1  0  0  0
  8  9  1  0  0  0
  8 56  1  0  0  0
  8 57  1  0  0  0
  9 10  1  0  0  0
  9 58  1  0  0  0
  9 59  1  0  0  0
 10 11  2  0  0  0
 10 14  1  0  0  0
 11 12  1  0  0  0
 11 60  1  0  0  0
 12 13  2  0  0  0
 14 15  2  0  0  0
 14 21  1  0  0  0
 15 16  1  0  0  0
 15 17  1  0  0  0
 17 18  2  0  0  0
 17 61  1  0  0  0
 18 19  1  0  0  0
 18 62  1  0  0  0
 19 20  1  0  0  0
 19 21  2  0  0  0
 21 22  1  0  0  0
 23 24  1  0  0  0
 23 28  2  0  0  0
 24 25  2  0  0  0
 24 63  1  0  0  0
 25 26  1  0  0  0
 25 29  1  0  0  0
 26 27  2  0  0  0
 26 64  1  0  0  0
 27 28  1  0  0  0
 27 65  1  0  0  0
 29 30  2  0  0  0
 29 41  1  0  0  0
 30 31  1  0  0  0
 30 66  1  0  0  0
 31 32  2  0  0  0
 31 67  1  0  0  0
 32 33  1  0  0  0
 32 40  1  0  0  0
 33 34  1  0  0  0
 33 68  1  0  0  0
 34 35  2  0  0  0
 34 39  1  0  0  0
 35 36  1  0  0  0
 35 69  1  0  0  0
 36 37  2  0  0  0
 36 70  1  0  0  0
 37 38  1  0  0  0
 37 71  1  0  0  0
 38 39  2  0  0  0
 38 72  1  0  0  0
 40 41  2  0  0  0
 40 73  1  0  0  0
 41 42  1  0  0  0
 42 43  1  0  0  0
 42 74  1  0  0  0
 43 44  2  0  0  0
M  END
> <chembl_id>
CHEMBL4111433

> <chembl_pref_name>
None

> <i_m_ct_stereo_status>
1

> <s_m_source_file>
sdf/actives_sanitized.sdf

> <i_m_source_file_index>
60

> <i_lp_mmshare_version>
49012

> <i_f3d_flags>
0

> <s_epik_input>
bjFbY0hdW2NIXVtjSF1bY0hdYzFbTkhdYyhbY0hdW2NIXTIpW2NIXWMoYzJjKFtjSF1jMzQpW2NIXVtjSF1uNClbTkhdQyg9TylbQ0BIXShbQ0gzXSlbQ0gyXVtDSDJdW0NIMl1bQ0BASF0zTjVbQ0gyXVtDSDJdQyg9W0NIXUM1PU8pYzZjKEYpW2NIXVtjSF1jKENsKWM2Rg==

> <s_epik_cmdline>
J2VwaWtfcHl0aG9uJywgJy1waHQnLCAnMC41JywgJy1waCcsICc3LjUnLCAnLW50JywgJy1tYScsICcyMDAnLCAnLWltYWUnLCAnPGluZmlsZS5tYWU+JywgJy1vbWFlJywgJzxvdXRmaWxlLm1hZT4n

> <r_lp_tautomer_probability>
1

> <r_epik_Ionization_Penalty>
  0.0069

> <r_epik_Ionization_Penalty_Charging>
  0.0000

> <r_epik_Ionization_Penalty_Neutral>
  0.0069

> <r_epik_State_Penalty>
 -0.0000

> <r_epik_Charging_Adjusted_Penalty>
0

> <i_epik_Tot_Q>
0

> <i_epik_Tot_abs_Q>
0

> <s_lp_Force_Field>
OPLS3e

> <r_lp_Energy>
104.895883

> <b_lp_Chiralities_Consistent>
1

> <s_lp_Variant>
sdf/actives_sanitized.sdf:60-1

$$$$
sdf/actives_sanitized.sdf:61
                    3D
 Schrodinger Suite 2020-1.
 61 66  0  0  1  0            999 V2000
    0.2538    0.3885   -0.0439 C   0  0  0  0  0  0
   -0.5706    1.4834   -0.2964 N   0  0  0  0  0  0
    7.5560   -2.6381    0.1500 N   0  0  0  0  0  0
   -1.8708    1.1349   -0.1930 N   0  0  0  0  0  0
    1.6828    0.3831    0.1846 C   0  0  0  0  0  0
   -0.6274   -0.6809    0.0808 C   0  0  0  0  0  0
   -1.9158   -0.1668   -0.0442 C   0  0  0  0  0  0
    8.7012   -2.0227   -0.3184 C   0  0  0  0  0  0
    9.8060   -2.6917   -0.1223 N   0  0  0  0  0  0
   -3.5070   -1.5025   -2.2949 N   0  0  0  0  0  0
   -3.4006   -1.8826   -1.0149 N   0  0  0  0  0  0
   -3.6266   -2.6611   -3.0430 N   0  0  0  0  0  0
    7.9867   -3.8363    0.7058 C   0  0  0  0  0  0
   -0.2488    2.8689   -0.3736 C   0  0  0  0  0  0
    2.4152    5.0762   -1.9329 C   0  0  0  0  0  0
    2.2734   -0.7704   -0.2005 N   0  0  0  0  0  0
   -3.5909   -3.6876   -2.2128 C   0  0  0  0  0  0
   -3.2466   -0.8894    0.0397 C   0  0  0  0  0  0
    9.3959   -3.8298    0.5138 C   0  0  0  0  0  0
   -3.4474   -3.2493   -0.9057 C   0  0  0  0  0  0
    6.2390   -2.1412    0.0283 C   0  0  0  0  0  0
    0.8805    3.2919   -1.0888 C   0  0  0  0  0  0
    1.2298    4.6504   -1.1838 C   0  0  0  0  0  0
    3.0992    6.1336   -1.5124 N   0  3  0  0  0  0
    2.2515    1.3441    0.7031 O   0  0  0  0  0  0
    5.1782   -3.0087   -0.2478 C   0  0  0  0  0  0
    5.9895   -0.7814    0.2399 C   0  0  0  0  0  0
    3.6226   -1.1607   -0.1076 C   0  0  0  0  0  0
    2.7747    4.3948   -3.0143 N   0  0  0  0  0  0
    3.8788   -2.5166   -0.3236 C   0  0  0  0  0  0
    4.6889   -0.2896    0.1672 C   0  0  0  0  0  0
   -1.0571    3.8337    0.2451 C   0  0  0  0  0  0
    7.3387   -4.8991    1.3521 C   0  0  0  0  0  0
    0.4040    5.5870   -0.5401 C   0  0  0  0  0  0
   -0.7284    5.1838    0.1643 C   0  0  0  0  0  0
   10.1705   -4.9091    0.9631 C   0  0  0  0  0  0
    8.1391   -5.9577    1.7876 C   0  0  0  0  0  0
    9.5205   -5.9669    1.5981 C   0  0  0  0  0  0
   -0.3730   -1.7121    0.2791 H   0  0  0  0  0  0
    8.6311   -1.0666   -0.8169 H   0  0  0  0  0  0
    1.6610   -1.4794   -0.5762 H   0  0  0  0  0  0
   -3.6658   -4.7107   -2.5509 H   0  0  0  0  0  0
   -4.1026   -0.2131   -0.0041 H   0  0  0  0  0  0
   -3.3238   -1.4177    0.9911 H   0  0  0  0  0  0
   -3.3758   -3.7540    0.0465 H   0  0  0  0  0  0
    1.4901    2.5493   -1.5842 H   0  0  0  0  0  0
    3.9172    6.4385   -2.0193 H   0  0  0  0  0  0
    5.3512   -4.0607   -0.4210 H   0  0  0  0  0  0
    6.7968   -0.1003    0.4685 H   0  0  0  0  0  0
    3.5885    4.6771   -3.5407 H   0  0  0  0  0  0
    2.2270    3.5997   -3.3100 H   0  0  0  0  0  0
    3.0717   -3.2011   -0.5440 H   0  0  0  0  0  0
    4.5427    0.7670    0.3240 H   0  0  0  0  0  0
   -1.9363    3.5454    0.8033 H   0  0  0  0  0  0
    6.2724   -4.9103    1.5205 H   0  0  0  0  0  0
    0.6244    6.6443   -0.5868 H   0  0  0  0  0  0
   -1.3528    5.9198    0.6494 H   0  0  0  0  0  0
   11.2417   -4.9242    0.8250 H   0  0  0  0  0  0
    7.6747   -6.7942    2.2893 H   0  0  0  0  0  0
   10.0977   -6.8081    1.9535 H   0  0  0  0  0  0
    2.8016    6.6246   -0.6819 H   0  0  0  0  0  0
  1  2  1  0  0  0
  1  5  1  0  0  0
  1  6  2  0  0  0
  2  4  1  0  0  0
  2 14  1  0  0  0
  3 21  1  0  0  0
  3  8  1  0  0  0
  3 13  1  0  0  0
  4  7  2  0  0  0
  5 16  1  0  0  0
  5 25  2  0  0  0
  6  7  1  0  0  0
  6 39  1  0  0  0
  7 18  1  0  0  0
  8  9  2  0  0  0
  8 40  1  0  0  0
  9 19  1  0  0  0
 10 11  1  0  0  0
 10 12  2  0  0  0
 11 18  1  0  0  0
 11 20  1  0  0  0
 12 17  1  0  0  0
 13 19  2  0  0  0
 13 33  1  0  0  0
 14 22  2  0  0  0
 14 32  1  0  0  0
 15 23  1  0  0  0
 15 24  2  0  0  0
 15 29  1  0  0  0
 16 28  1  0  0  0
 16 41  1  0  0  0
 17 20  2  0  0  0
 17 42  1  0  0  0
 18 43  1  0  0  0
 18 44  1  0  0  0
 19 36  1  0  0  0
 20 45  1  0  0  0
 21 27  2  0  0  0
 21 26  1  0  0  0
 22 23  1  0  0  0
 22 46  1  0  0  0
 23 34  2  0  0  0
 24 47  1  0  0  0
 24 61  1  0  0  0
 26 30  2  0  0  0
 26 48  1  0  0  0
 27 31  1  0  0  0
 27 49  1  0  0  0
 28 30  1  0  0  0
 28 31  2  0  0  0
 29 50  1  0  0  0
 29 51  1  0  0  0
 30 52  1  0  0  0
 31 53  1  0  0  0
 32 35  2  0  0  0
 32 54  1  0  0  0
 33 37  2  0  0  0
 33 55  1  0  0  0
 34 35  1  0  0  0
 34 56  1  0  0  0
 35 57  1  0  0  0
 36 38  2  0  0  0
 36 58  1  0  0  0
 37 38  1  0  0  0
 37 59  1  0  0  0
 38 60  1  0  0  0
M  CHG  1  24   1
M  END
> <chembl_id>
CHEMBL185232

> <chembl_pref_name>
None

> <s_m_source_file>
sdf/actives_sanitized.sdf

> <i_m_source_file_index>
61

> <i_lp_mmshare_version>
49012

> <i_m_ct_stereo_status>
1

> <i_f3d_flags>
0

> <s_epik_input>
W2NIXTFbY0hdbm5uMVtDSDJdYyhbY0hdMilubigtYzNbY0hdYygvQyg9Ti9bSF0pW05IMl0pW2NIXVtjSF1bY0hdMyljMkMoPU8pW05IXWMoW2NIXVtjSF00KVtjSF1bY0hdYzQtbjVbY0hdbmMoYzU2KVtjSF1bY0hdW2NIXVtjSF02

> <s_epik_cmdline>
J2VwaWtfcHl0aG9uJywgJy1waHQnLCAnMC41JywgJy1waCcsICc3LjUnLCAnLW50JywgJy1tYScsICcyMDAnLCAnLWltYWUnLCAnPGluZmlsZS5tYWU+JywgJy1vbWFlJywgJzxvdXRmaWxlLm1hZT4n

> <r_lp_tautomer_probability>
1

> <r_epik_Ionization_Penalty>
  0.0112

> <r_epik_Ionization_Penalty_Charging>
  0.0010

> <r_epik_Ionization_Penalty_Neutral>
  0.0102

> <r_epik_State_Penalty>
  0.0078

> <r_epik_Charging_Adjusted_Penalty>
0.00877873498810205

> <i_epik_Tot_Q>
1

> <i_epik_Tot_abs_Q>
1

> <s_epik_Chemistry_Notes>
This compound has an imine and may undergo hydrolysis.

> <s_lp_Force_Field>
OPLS3e

> <r_lp_Energy>
48.366231

> <b_lp_Chiralities_Consistent>
1

> <s_lp_Variant>
sdf/actives_sanitized.sdf:61-1

$$$$
sdf/actives_sanitized.sdf:62
                    3D
 Schrodinger Suite 2020-1.
 73 78  0  0  1  0            999 V2000
   -4.9493    3.2228   -0.9581 C   0  0  0  0  0  0
   -3.7227    2.2836   -0.9420 C   0  0  2  0  0  0
   -2.7884    2.6428    0.2667 C   0  0  0  0  0  0
   -1.7866    1.5684    0.7744 C   0  0  0  0  0  0
   -0.4737    1.3959   -0.0387 C   0  0  0  0  0  0
    0.0998   -0.0622   -0.0822 C   0  0  2  0  0  0
    1.5820   -0.0723   -0.0192 N   0  0  0  0  0  0
    2.3385    0.7697   -0.9910 C   0  0  0  0  0  0
    3.7543    0.2071   -1.2876 C   0  0  0  0  0  0
    4.4288   -0.1484    0.0274 C   0  0  0  0  0  0
    3.6573   -0.6573    1.0096 C   0  0  0  0  0  0
    2.2197   -0.8141    0.9437 C   0  0  0  0  0  0
    1.6487   -1.5945    1.7072 O   0  0  0  0  0  0
    5.9080   -0.2213    0.1311 C   0  0  0  0  0  0
    6.5714    0.3484    1.2320 C   0  0  0  0  0  0
    5.8761    0.9816    2.2064 F   0  0  0  0  0  0
    7.9608    0.2862    1.3351 C   0  0  0  0  0  0
    8.7094   -0.3406    0.3432 C   0  0  0  0  0  0
    8.0700   -0.9087   -0.7566 C   0  0  0  0  0  0
    9.0138   -1.6861   -1.9778 Cl  0  0  0  0  0  0
    6.6767   -0.8508   -0.8646 C   0  0  0  0  0  0
    6.0773   -1.4259   -1.9348 F   0  0  0  0  0  0
   -0.4757   -0.8804   -1.2617 C   0  0  0  0  0  0
   -1.8199   -0.7446   -1.5976 C   0  0  0  0  0  0
   -2.3274   -1.3077   -2.7633 C   0  0  0  0  0  0
   -1.4823   -2.1263   -3.5208 C   0  0  0  0  0  0
   -0.1576   -2.2894   -3.1006 C   0  0  0  0  0  0
    0.3550   -1.6682   -2.0040 N   0  0  0  0  0  0
   -3.7240   -0.9747   -3.1495 C   0  0  0  0  0  0
   -4.6610   -1.9992   -3.3108 C   0  0  0  0  0  0
   -5.9961   -1.7091   -3.5876 C   0  0  0  0  0  0
   -6.4268   -0.3881   -3.7277 C   0  0  0  0  0  0
   -7.7914   -0.1756   -3.9960 N   0  0  0  0  0  0
   -8.5119    0.9096   -4.5240 C   0  0  0  0  0  0
   -9.9050    0.7940   -4.6098 C   0  0  0  0  0  0
  -10.6082    1.8770   -5.1451 C   0  0  0  0  0  0
   -9.9913    3.0077   -5.5758 N   0  0  0  0  0  0
   -8.6396    3.0269   -5.4581 C   0  0  0  0  0  0
   -7.8674    2.0302   -4.9542 N   0  0  0  0  0  0
   -5.4939    0.6460   -3.5772 C   0  0  0  0  0  0
   -4.1541    0.3637   -3.2915 C   0  0  0  0  0  0
   -3.2339    1.4272   -3.2886 N   0  0  0  0  0  0
   -3.0134    2.3468   -2.3214 C   0  0  0  0  0  0
   -2.2265    3.2667   -2.5419 O   0  0  0  0  0  0
   -5.6451    2.9739   -1.7596 H   0  0  0  0  0  0
   -4.6585    4.2662   -1.0924 H   0  0  0  0  0  0
   -5.5104    3.1559   -0.0252 H   0  0  0  0  0  0
   -4.1132    1.2797   -0.7767 H   0  0  0  0  0  0
   -2.2605    3.5804    0.0838 H   0  0  0  0  0  0
   -3.4334    2.8612    1.1195 H   0  0  0  0  0  0
   -1.4940    1.8403    1.7900 H   0  0  0  0  0  0
   -2.3104    0.6238    0.9128 H   0  0  0  0  0  0
   -0.5967    1.7576   -1.0581 H   0  0  0  0  0  0
    0.2602    2.0769    0.3957 H   0  0  0  0  0  0
   -0.2957   -0.5636    0.8025 H   0  0  0  0  0  0
    1.7493    1.0052   -1.8779 H   0  0  0  0  0  0
    2.4970    1.7252   -0.4887 H   0  0  0  0  0  0
    3.6346   -0.6931   -1.8921 H   0  0  0  0  0  0
    4.3451    0.9195   -1.8642 H   0  0  0  0  0  0
    4.1330   -1.0189    1.9105 H   0  0  0  0  0  0
    8.4595    0.7287    2.1849 H   0  0  0  0  0  0
    9.7853   -0.3845    0.4297 H   0  0  0  0  0  0
   -2.4804   -0.1500   -1.0009 H   0  0  0  0  0  0
   -1.8338   -2.6038   -4.4238 H   0  0  0  0  0  0
    0.5257   -2.9066   -3.6650 H   0  0  0  0  0  0
   -4.3598   -3.0308   -3.1972 H   0  0  0  0  0  0
   -6.6968   -2.5253   -3.6937 H   0  0  0  0  0  0
   -8.3604   -0.9967   -3.8517 H   0  0  0  0  0  0
  -10.4252   -0.0925   -4.2764 H   0  0  0  0  0  0
  -11.6841    1.8483   -5.2354 H   0  0  0  0  0  0
   -8.1307    3.9175   -5.7965 H   0  0  0  0  0  0
   -5.7877    1.6775   -3.6853 H   0  0  0  0  0  0
   -2.6613    1.4971   -4.1172 H   0  0  0  0  0  0
  1  2  1  0  0  0
  1 45  1  0  0  0
  1 46  1  0  0  0
  1 47  1  0  0  0
  2  3  1  0  0  0
  2 43  1  0  0  0
  2 48  1  0  0  0
  3  4  1  0  0  0
  3 49  1  0  0  0
  3 50  1  0  0  0
  4  5  1  0  0  0
  4 51  1  0  0  0
  4 52  1  0  0  0
  5  6  1  0  0  0
  5 53  1  0  0  0
  5 54  1  0  0  0
  6  7  1  0  0  0
  6 23  1  0  0  0
  6 55  1  0  0  0
  7  8  1  0  0  0
  7 12  1  0  0  0
  8  9  1  0  0  0
  8 56  1  0  0  0
  8 57  1  0  0  0
  9 10  1  0  0  0
  9 58  1  0  0  0
  9 59  1  0  0  0
 10 11  2  0  0  0
 10 14  1  0  0  0
 11 12  1  0  0  0
 11 60  1  0  0  0
 12 13  2  0  0  0
 14 15  2  0  0  0
 14 21  1  0  0  0
 15 16  1  0  0  0
 15 17  1  0  0  0
 17 18  2  0  0  0
 17 61  1  0  0  0
 18 19  1  0  0  0
 18 62  1  0  0  0
 19 20  1  0  0  0
 19 21  2  0  0  0
 21 22  1  0  0  0
 23 24  1  0  0  0
 23 28  2  0  0  0
 24 25  2  0  0  0
 24 63  1  0  0  0
 25 26  1  0  0  0
 25 29  1  0  0  0
 26 27  2  0  0  0
 26 64  1  0  0  0
 27 28  1  0  0  0
 27 65  1  0  0  0
 29 30  2  0  0  0
 29 41  1  0  0  0
 30 31  1  0  0  0
 30 66  1  0  0  0
 31 32  2  0  0  0
 31 67  1  0  0  0
 32 33  1  0  0  0
 32 40  1  0  0  0
 33 34  1  0  0  0
 33 68  1  0  0  0
 34 35  2  0  0  0
 34 39  1  0  0  0
 35 36  1  0  0  0
 35 69  1  0  0  0
 36 37  2  0  0  0
 36 70  1  0  0  0
 37 38  1  0  0  0
 38 39  2  0  0  0
 38 71  1  0  0  0
 40 41  2  0  0  0
 40 72  1  0  0  0
 41 42  1  0  0  0
 42 43  1  0  0  0
 42 73  1  0  0  0
 43 44  2  0  0  0
M  END
> <chembl_id>
CHEMBL4109906

> <chembl_pref_name>
None

> <i_m_ct_stereo_status>
1

> <s_m_source_file>
sdf/actives_sanitized.sdf

> <i_m_source_file_index>
62

> <i_lp_mmshare_version>
49012

> <i_f3d_flags>
0

> <s_epik_input>
bjFbY0hdbltjSF1bY0hdYzFbTkhdYyhbY0hdW2NIXTIpW2NIXWMoYzJjKFtjSF1jMzQpW2NIXVtjSF1uNClbTkhdQyg9TylbQ0BIXShbQ0gzXSlbQ0gyXVtDSDJdW0NIMl1bQ0BASF0zTjVbQ0gyXVtDSDJdQyg9W0NIXUM1PU8pYzZjKEYpW2NIXVtjSF1jKENsKWM2Rg==

> <s_epik_cmdline>
J2VwaWtfcHl0aG9uJywgJy1waHQnLCAnMC41JywgJy1waCcsICc3LjUnLCAnLW50JywgJy1tYScsICcyMDAnLCAnLWltYWUnLCAnPGluZmlsZS5tYWU+JywgJy1vbWFlJywgJzxvdXRmaWxlLm1hZT4n

> <r_lp_tautomer_probability>
1

> <r_epik_Ionization_Penalty>
  0.0001

> <r_epik_Ionization_Penalty_Charging>
  0.0000

> <r_epik_Ionization_Penalty_Neutral>
  0.0001

> <r_epik_State_Penalty>
 -0.0000

> <r_epik_Charging_Adjusted_Penalty>
0

> <i_epik_Tot_Q>
0

> <i_epik_Tot_abs_Q>
0

> <s_lp_Force_Field>
OPLS3e

> <r_lp_Energy>
107.84442

> <b_lp_Chiralities_Consistent>
1

> <s_lp_Variant>
sdf/actives_sanitized.sdf:62-1

$$$$
sdf/actives_sanitized.sdf:63
                    3D
 Schrodinger Suite 2020-1.
 74 78  0  0  1  0            999 V2000
  -10.2066   -6.1522   -0.3224 C   0  0  0  0  0  0
   -9.4301   -5.1331   -0.9369 O   0  0  0  0  0  0
   -8.0864   -5.1259   -0.8269 C   0  0  0  0  0  0
   -7.4348   -5.9723   -0.2112 O   0  0  0  0  0  0
   -7.5981   -4.0238   -1.5221 N   0  0  0  0  0  0
   -6.2749   -3.5746   -1.6712 C   0  0  0  0  0  0
   -5.1681   -4.1278   -1.0114 C   0  0  0  0  0  0
   -3.8932   -3.6075   -1.2243 C   0  0  0  0  0  0
   -3.6856   -2.5310   -2.0934 C   0  0  0  0  0  0
   -4.8046   -1.9573   -2.7362 C   0  0  0  0  0  0
   -4.7109   -0.8844   -3.6372 N   0  0  0  0  0  0
   -4.4543    0.4152   -3.3627 C   0  0  0  0  0  0
   -4.4831    1.2369   -4.2781 O   0  0  0  0  0  0
   -4.1213    0.9130   -1.9307 C   0  0  2  0  0  0
   -5.2551    1.8009   -1.3780 C   0  0  0  0  0  0
   -2.7477    1.6465   -1.9105 C   0  0  0  0  0  0
   -2.1080    1.8158   -0.5065 C   0  0  0  0  0  0
   -0.5573    1.7226   -0.4868 C   0  0  0  0  0  0
    0.0287    0.2832   -0.3247 C   0  0  2  0  0  0
    1.5050    0.2411   -0.1467 N   0  0  0  0  0  0
    2.3859    1.1210   -0.9675 C   0  0  0  0  0  0
    3.7915    1.3626   -0.3413 C   0  0  2  0  0  0
    4.7352    2.0253   -1.3665 C   0  0  0  0  0  0
    4.3375    0.0465    0.2119 C   0  0  0  0  0  0
    3.4766   -0.9309    0.5508 C   0  0  0  0  0  0
    2.0365   -0.8108    0.5594 C   0  0  0  0  0  0
    1.3661   -1.5988    1.2298 O   0  0  0  0  0  0
    5.7896   -0.1875    0.3493 C   0  0  0  0  0  0
    6.4953   -0.8854   -0.6412 C   0  0  0  0  0  0
    5.8554   -1.3582   -1.7370 F   0  0  0  0  0  0
    7.8670   -1.1005   -0.5092 C   0  0  0  0  0  0
    8.5460   -0.6220    0.6097 C   0  0  0  0  0  0
    7.8547    0.0735    1.6012 C   0  0  0  0  0  0
    8.7112    0.6628    2.9813 Cl  0  0  0  0  0  0
    6.4791    0.2908    1.4730 C   0  0  0  0  0  0
    5.8137    0.9683    2.4398 F   0  0  0  0  0  0
   -0.4947   -0.6669   -1.4065 C   0  0  0  0  0  0
   -1.6882   -1.3577   -1.1886 C   0  0  0  0  0  0
   -2.3101   -2.0000   -2.2621 C   0  0  0  0  0  0
   -1.6435   -2.0430   -3.4928 C   0  0  0  0  0  0
   -0.4037   -1.4104   -3.6098 C   0  0  0  0  0  0
    0.1663   -0.7102   -2.5958 N   0  0  0  0  0  0
   -6.0800   -2.4922   -2.5317 C   0  0  0  0  0  0
  -11.2653   -5.9751   -0.5120 H   0  0  0  0  0  0
  -10.0530   -6.1648    0.7576 H   0  0  0  0  0  0
   -9.9492   -7.1344   -0.7216 H   0  0  0  0  0  0
   -8.2933   -3.4592   -1.9878 H   0  0  0  0  0  0
   -5.2633   -4.9536   -0.3252 H   0  0  0  0  0  0
   -3.0554   -4.0502   -0.7047 H   0  0  0  0  0  0
   -4.9829   -1.0973   -4.5858 H   0  0  0  0  0  0
   -4.0541    0.0543   -1.2666 H   0  0  0  0  0  0
   -6.2072    1.2683   -1.3641 H   0  0  0  0  0  0
   -5.3928    2.7026   -1.9767 H   0  0  0  0  0  0
   -5.0474    2.1140   -0.3544 H   0  0  0  0  0  0
   -2.0504    1.1144   -2.5569 H   0  0  0  0  0  0
   -2.8410    2.6267   -2.3821 H   0  0  0  0  0  0
   -2.4116    2.7873   -0.1135 H   0  0  0  0  0  0
   -2.5169    1.0905    0.1978 H   0  0  0  0  0  0
   -0.1716    2.2082   -1.3830 H   0  0  0  0  0  0
   -0.1994    2.3213    0.3522 H   0  0  0  0  0  0
   -0.3997   -0.0690    0.6160 H   0  0  0  0  0  0
    2.5953    0.5253   -1.8579 H   0  0  0  0  0  0
    1.9003    2.0151   -1.3520 H   0  0  0  0  0  0
    3.6873    2.0489    0.5005 H   0  0  0  0  0  0
    5.6917    2.2938   -0.9168 H   0  0  0  0  0  0
    4.2999    2.9432   -1.7631 H   0  0  0  0  0  0
    4.9369    1.3659   -2.2119 H   0  0  0  0  0  0
    3.8783   -1.8644    0.9206 H   0  0  0  0  0  0
    8.4053   -1.6385   -1.2757 H   0  0  0  0  0  0
    9.6087   -0.7915    0.7053 H   0  0  0  0  0  0
   -2.1923   -1.2852   -0.2354 H   0  0  0  0  0  0
   -2.0863   -2.5382   -4.3447 H   0  0  0  0  0  0
    0.1337   -1.4239   -4.5465 H   0  0  0  0  0  0
   -6.9279   -2.0563   -3.0433 H   0  0  0  0  0  0
  1  2  1  0  0  0
  1 44  1  0  0  0
  1 45  1  0  0  0
  1 46  1  0  0  0
  2  3  1  0  0  0
  3  4  2  0  0  0
  3  5  1  0  0  0
  5  6  1  0  0  0
  5 47  1  0  0  0
  6  7  2  0  0  0
  6 43  1  0  0  0
  7  8  1  0  0  0
  7 48  1  0  0  0
  8  9  2  0  0  0
  8 49  1  0  0  0
  9 10  1  0  0  0
  9 39  1  0  0  0
 10 11  1  0  0  0
 10 43  2  0  0  0
 11 12  1  0  0  0
 11 50  1  0  0  0
 12 13  2  0  0  0
 12 14  1  0  0  0
 14 15  1  0  0  0
 14 16  1  0  0  0
 14 51  1  0  0  0
 15 52  1  0  0  0
 15 53  1  0  0  0
 15 54  1  0  0  0
 16 17  1  0  0  0
 16 55  1  0  0  0
 16 56  1  0  0  0
 17 18  1  0  0  0
 17 57  1  0  0  0
 17 58  1  0  0  0
 18 19  1  0  0  0
 18 59  1  0  0  0
 18 60  1  0  0  0
 19 20  1  0  0  0
 19 37  1  0  0  0
 19 61  1  0  0  0
 20 21  1  0  0  0
 20 26  1  0  0  0
 21 22  1  0  0  0
 21 62  1  0  0  0
 21 63  1  0  0  0
 22 23  1  0  0  0
 22 24  1  0  0  0
 22 64  1  0  0  0
 23 65  1  0  0  0
 23 66  1  0  0  0
 23 67  1  0  0  0
 24 25  2  0  0  0
 24 28  1  0  0  0
 25 26  1  0  0  0
 25 68  1  0  0  0
 26 27  2  0  0  0
 28 29  2  0  0  0
 28 35  1  0  0  0
 29 30  1  0  0  0
 29 31  1  0  0  0
 31 32  2  0  0  0
 31 69  1  0  0  0
 32 33  1  0  0  0
 32 70  1  0  0  0
 33 34  1  0  0  0
 33 35  2  0  0  0
 35 36  1  0  0  0
 37 38  1  0  0  0
 37 42  2  0  0  0
 38 39  2  0  0  0
 38 71  1  0  0  0
 39 40  1  0  0  0
 40 41  2  0  0  0
 40 72  1  0  0  0
 41 42  1  0  0  0
 41 73  1  0  0  0
 43 74  1  0  0  0
M  END
> <chembl_id>
CHEMBL4112921

> <chembl_pref_name>
None

> <i_m_ct_stereo_status>
1

> <s_m_source_file>
sdf/actives_sanitized.sdf

> <i_m_source_file_index>
63

> <i_lp_mmshare_version>
49012

> <i_f3d_flags>
0

> <s_epik_input>
W0NIM11PQyg9TylbTkhdYyhbY0hdW2NIXTEpW2NIXWMoYzEyKVtOSF1DKD1PKVtDQEhdKFtDSDNdKVtDSDJdW0NIMl1bQ0gyXVtDQEBIXShjM1tjSF1jMltjSF1bY0hdbjMpTjRbQ0gyXVtDQEhdKFtDSDNdKUMoPVtDSF1DND1PKWM1YyhGKVtjSF1bY0hdYyhDbCljNUY=

> <s_epik_cmdline>
J2VwaWtfcHl0aG9uJywgJy1waHQnLCAnMC41JywgJy1waCcsICc3LjUnLCAnLW50JywgJy1tYScsICcyMDAnLCAnLWltYWUnLCAnPGluZmlsZS5tYWU+JywgJy1vbWFlJywgJzxvdXRmaWxlLm1hZT4n

> <r_lp_tautomer_probability>
1

> <r_epik_Ionization_Penalty>
  0.0001

> <r_epik_Ionization_Penalty_Charging>
  0.0000

> <r_epik_Ionization_Penalty_Neutral>
  0.0001

> <r_epik_State_Penalty>
 -0.0000

> <r_epik_Charging_Adjusted_Penalty>
0

> <i_epik_Tot_Q>
0

> <i_epik_Tot_abs_Q>
0

> <s_epik_Chemistry_Notes>
This compound has an ester and may undergo hydrolysis at high or low pH.

> <s_lp_Force_Field>
OPLS3e

> <r_lp_Energy>
82.889166

> <b_lp_Chiralities_Consistent>
1

> <s_lp_Variant>
sdf/actives_sanitized.sdf:63-1

$$$$
sdf/actives_sanitized.sdf:64
                    3D
 Schrodinger Suite 2020-1.
 71 75  0  0  1  0            999 V2000
   -3.2976    1.4719   -0.0397 C   0  0  0  0  0  0
   -2.1382    0.6648   -0.1942 O   0  0  0  0  0  0
   -0.9069    1.1814   -0.0069 C   0  0  0  0  0  0
   -0.6845    2.3558    0.2949 O   0  0  0  0  0  0
    0.0269    0.1718   -0.2186 N   0  0  0  0  0  0
    1.4277    0.2142   -0.1173 C   0  0  0  0  0  0
    2.1600    1.3204    0.3407 C   0  0  0  0  0  0
    3.5511    1.2617    0.4117 C   0  0  0  0  0  0
    4.2407    0.1074    0.0316 C   0  0  0  0  0  0
    3.5068   -1.0013   -0.4336 C   0  0  0  0  0  0
    4.1334   -2.2147   -0.7538 N   0  0  0  0  0  0
    4.5964   -2.6110   -1.9599 C   0  0  0  0  0  0
    5.0621   -3.7439   -2.0734 O   0  0  0  0  0  0
    4.5423   -1.6831   -3.2073 C   0  0  2  0  0  0
    3.1913   -1.8659   -3.9336 C   0  0  0  0  0  0
    5.7365   -1.8892   -4.2030 C   0  0  2  0  0  0
    5.6921   -3.0943   -4.7778 F   0  0  0  0  0  0
    7.1577   -1.6147   -3.6364 C   0  0  0  0  0  0
    7.6374   -0.1395   -3.7297 C   0  0  0  0  0  0
    8.5000    0.3907   -2.5376 C   0  0  2  0  0  0
    9.9001   -0.1079   -2.5818 N   0  0  0  0  0  0
   10.1540   -1.5718   -2.4424 C   0  0  0  0  0  0
   11.5767   -1.8777   -1.9047 C   0  0  0  0  0  0
   12.5843   -1.0661   -2.7008 C   0  0  0  0  0  0
   12.2233    0.1737   -3.0892 C   0  0  0  0  0  0
   10.9167    0.7646   -2.8879 C   0  0  0  0  0  0
   10.7817    1.9867   -2.9675 O   0  0  0  0  0  0
   14.0028   -1.4921   -2.7940 C   0  0  0  0  0  0
   14.7040   -1.9346   -1.6590 C   0  0  0  0  0  0
   14.1111   -1.9645   -0.4424 F   0  0  0  0  0  0
   16.0360   -2.3358   -1.7596 C   0  0  0  0  0  0
   16.6872   -2.3046   -2.9896 C   0  0  0  0  0  0
   16.0072   -1.8723   -4.1261 C   0  0  0  0  0  0
   16.8267   -1.8448   -5.6472 Cl  0  0  0  0  0  0
   14.6720   -1.4682   -4.0310 C   0  0  0  0  0  0
   14.0220   -1.0657   -5.1502 F   0  0  0  0  0  0
    7.7882    0.2397   -1.1777 C   0  0  0  0  0  0
    6.4109    0.4553   -1.0953 C   0  0  0  0  0  0
    5.7207    0.0958    0.0592 C   0  0  0  0  0  0
    6.4500   -0.3530    1.1648 C   0  0  0  0  0  0
    7.8387   -0.4563    1.0511 C   0  0  0  0  0  0
    8.5074   -0.1853   -0.1001 N   0  0  0  0  0  0
    2.1113   -0.9448   -0.4927 C   0  0  0  0  0  0
   -4.1908    0.8776   -0.2319 H   0  0  0  0  0  0
   -3.2891    2.3084   -0.7401 H   0  0  0  0  0  0
   -3.3655    1.8688    0.9743 H   0  0  0  0  0  0
   -0.3523   -0.7252   -0.4836 H   0  0  0  0  0  0
    1.6822    2.2354    0.6516 H   0  0  0  0  0  0
    4.0974    2.1272    0.7584 H   0  0  0  0  0  0
    4.2123   -2.8752    0.0059 H   0  0  0  0  0  0
    4.5735   -0.6491   -2.8741 H   0  0  0  0  0  0
    2.3460   -1.6431   -3.2816 H   0  0  0  0  0  0
    3.0609   -2.8867   -4.2968 H   0  0  0  0  0  0
    3.1133   -1.1989   -4.7928 H   0  0  0  0  0  0
    5.5895   -1.2222   -5.0542 H   0  0  0  0  0  0
    7.2149   -1.9834   -2.6134 H   0  0  0  0  0  0
    7.8766   -2.2263   -4.1836 H   0  0  0  0  0  0
    8.1917   -0.0039   -4.6598 H   0  0  0  0  0  0
    6.7763    0.5164   -3.8565 H   0  0  0  0  0  0
    8.5113    1.4734   -2.6717 H   0  0  0  0  0  0
    9.3521   -2.0924   -1.9201 H   0  0  0  0  0  0
   10.1419   -1.9651   -3.4600 H   0  0  0  0  0  0
   11.6099   -1.5792   -0.8559 H   0  0  0  0  0  0
   11.7915   -2.9456   -1.9545 H   0  0  0  0  0  0
   12.9627    0.8063   -3.5604 H   0  0  0  0  0  0
   16.5671   -2.6693   -0.8802 H   0  0  0  0  0  0
   17.7192   -2.6166   -3.0587 H   0  0  0  0  0  0
    5.8568    0.8235   -1.9434 H   0  0  0  0  0  0
    5.9522   -0.6365    2.0806 H   0  0  0  0  0  0
    8.4349   -0.7999    1.8835 H   0  0  0  0  0  0
    1.5575   -1.8104   -0.8309 H   0  0  0  0  0  0
  1  2  1  0  0  0
  1 44  1  0  0  0
  1 45  1  0  0  0
  1 46  1  0  0  0
  2  3  1  0  0  0
  3  4  2  0  0  0
  3  5  1  0  0  0
  5  6  1  0  0  0
  5 47  1  0  0  0
  6  7  2  0  0  0
  6 43  1  0  0  0
  7  8  1  0  0  0
  7 48  1  0  0  0
  8  9  2  0  0  0
  8 49  1  0  0  0
  9 10  1  0  0  0
  9 39  1  0  0  0
 10 11  1  0  0  0
 10 43  2  0  0  0
 11 12  1  0  0  0
 11 50  1  0  0  0
 12 13  2  0  0  0
 12 14  1  0  0  0
 14 15  1  0  0  0
 14 16  1  0  0  0
 14 51  1  0  0  0
 15 52  1  0  0  0
 15 53  1  0  0  0
 15 54  1  0  0  0
 16 17  1  0  0  0
 16 18  1  0  0  0
 16 55  1  0  0  0
 18 19  1  0  0  0
 18 56  1  0  0  0
 18 57  1  0  0  0
 19 20  1  0  0  0
 19 58  1  0  0  0
 19 59  1  0  0  0
 20 21  1  0  0  0
 20 37  1  0  0  0
 20 60  1  0  0  0
 21 22  1  0  0  0
 21 26  1  0  0  0
 22 23  1  0  0  0
 22 61  1  0  0  0
 22 62  1  0  0  0
 23 24  1  0  0  0
 23 63  1  0  0  0
 23 64  1  0  0  0
 24 25  2  0  0  0
 24 28  1  0  0  0
 25 26  1  0  0  0
 25 65  1  0  0  0
 26 27  2  0  0  0
 28 29  2  0  0  0
 28 35  1  0  0  0
 29 30  1  0  0  0
 29 31  1  0  0  0
 31 32  2  0  0  0
 31 66  1  0  0  0
 32 33  1  0  0  0
 32 67  1  0  0  0
 33 34  1  0  0  0
 33 35  2  0  0  0
 35 36  1  0  0  0
 37 38  1  0  0  0
 37 42  2  0  0  0
 38 39  2  0  0  0
 38 68  1  0  0  0
 39 40  1  0  0  0
 40 41  2  0  0  0
 40 69  1  0  0  0
 41 42  1  0  0  0
 41 70  1  0  0  0
 43 71  1  0  0  0
M  END
> <chembl_id>
CHEMBL4115353

> <chembl_pref_name>
None

> <i_m_ct_stereo_status>
1

> <s_m_source_file>
sdf/actives_sanitized.sdf

> <i_m_source_file_index>
64

> <i_lp_mmshare_version>
49012

> <i_f3d_flags>
0

> <s_epik_input>
W0NIM11PQyg9TylbTkhdYyhbY0hdW2NIXTEpW2NIXWMoYzEyKVtOSF1DKD1PKVtDQEhdKFtDSDNdKVtDQEhdKEYpW0NIMl1bQ0gyXVtDQEBIXShjM1tjSF1jMltjSF1bY0hdbjMpTjRbQ0gyXVtDSDJdQyg9W0NIXUM0PU8pYzVjKEYpW2NIXVtjSF1jKENsKWM1Rg==

> <s_epik_cmdline>
J2VwaWtfcHl0aG9uJywgJy1waHQnLCAnMC41JywgJy1waCcsICc3LjUnLCAnLW50JywgJy1tYScsICcyMDAnLCAnLWltYWUnLCAnPGluZmlsZS5tYWU+JywgJy1vbWFlJywgJzxvdXRmaWxlLm1hZT4n

> <r_lp_tautomer_probability>
1

> <r_epik_Ionization_Penalty>
  0.0001

> <r_epik_Ionization_Penalty_Charging>
  0.0000

> <r_epik_Ionization_Penalty_Neutral>
  0.0001

> <r_epik_State_Penalty>
 -0.0000

> <r_epik_Charging_Adjusted_Penalty>
0

> <i_epik_Tot_Q>
0

> <i_epik_Tot_abs_Q>
0

> <s_epik_Chemistry_Notes>
This compound has an ester and may undergo hydrolysis at high or low pH.

> <s_lp_Force_Field>
OPLS3e

> <r_lp_Energy>
96.625054

> <b_lp_Chiralities_Consistent>
1

> <s_lp_Variant>
sdf/actives_sanitized.sdf:64-1

$$$$
sdf/actives_sanitized.sdf:65
                    3D
 Schrodinger Suite 2020-1.
 64 69  0  0  1  0            999 V2000
    0.0771   -0.0656   -0.7701 C   0  0  0  0  0  0
    5.6602   -1.1602    6.1323 N   0  0  0  0  0  0
    5.1682   -0.9138    7.4001 C   0  0  0  0  0  0
   -0.5520    1.0746   -0.1644 C   0  0  0  0  0  0
    5.9862   -1.2070    8.3754 N   0  0  0  0  0  0
    2.0096   -0.8294    0.6882 C   0  0  0  0  0  0
    1.5883   -0.3123   -0.7058 C   0  0  1  0  0  0
   -0.8692   -0.8664   -1.3884 C   0  0  0  0  0  0
   -2.5108   -0.2991   -1.2767 S   0  0  0  0  0  0
    6.9385   -1.6675    6.3289 C   0  0  0  0  0  0
    0.0210    2.1348    0.5650 C   0  0  0  0  0  0
   -0.1616    4.2552    1.8511 C   0  0  0  0  0  0
   -0.7717    3.1650    1.0903 C   0  0  0  0  0  0
    3.0692   -0.2075    1.2499 N   0  0  0  0  0  0
   -1.9661    1.0869   -0.3539 C   0  0  0  0  0  0
    7.1013   -1.6791    7.7417 C   0  0  0  0  0  0
    4.9886   -0.8957    4.9176 C   0  0  0  0  0  0
   -0.8065    4.7497    2.9012 N   0  3  0  0  0  0
    2.0990   -1.2478   -1.8390 C   0  0  0  0  0  0
    1.4081   -1.7798    1.1930 O   0  0  0  0  0  0
   -2.1533    3.1332    0.8778 C   0  0  0  0  0  0
   -2.7680    2.1115    0.1623 C   0  0  0  0  0  0
    3.6242   -1.1837    4.8060 C   0  0  0  0  0  0
    5.6888   -0.3966    3.8144 C   0  0  0  0  0  0
    3.6655   -0.4689    2.4949 C   0  0  0  0  0  0
    1.0233    4.7211    1.4737 N   0  0  0  0  0  0
    5.0249   -0.1738    2.6114 C   0  0  0  0  0  0
    2.9615   -0.9653    3.6016 C   0  0  0  0  0  0
    3.6195   -1.3003   -1.9659 C   0  0  0  0  0  0
    7.9494   -2.1228    5.4697 C   0  0  0  0  0  0
    8.2990   -2.1409    8.3067 C   0  0  0  0  0  0
    4.2954   -0.2832   -2.6456 C   0  0  0  0  0  0
    4.3357   -2.3548   -1.3917 C   0  0  0  0  0  0
    9.1295   -2.5757    6.0647 C   0  0  0  0  0  0
    9.3042   -2.5843    7.4480 C   0  0  0  0  0  0
    5.7237   -2.3893   -1.4938 C   0  0  0  0  0  0
    5.6834   -0.3195   -2.7495 C   0  0  0  0  0  0
    6.3910   -1.3721   -2.1729 C   0  0  0  0  0  0
    4.1796   -0.4946    7.5202 H   0  0  0  0  0  0
    2.0754    0.6504   -0.8775 H   0  0  0  0  0  0
   -0.6812   -1.7898   -1.9164 H   0  0  0  0  0  0
    1.0865    2.1528    0.7369 H   0  0  0  0  0  0
    3.5639    0.4561    0.6720 H   0  0  0  0  0  0
   -1.7024    4.3657    3.1644 H   0  0  0  0  0  0
    1.7156   -2.2620   -1.7077 H   0  0  0  0  0  0
    1.7009   -0.9169   -2.8001 H   0  0  0  0  0  0
   -2.7699    3.9272    1.2727 H   0  0  0  0  0  0
   -3.8381    2.1127    0.0125 H   0  0  0  0  0  0
    3.0717   -1.5806    5.6455 H   0  0  0  0  0  0
    6.7406   -0.1613    3.8839 H   0  0  0  0  0  0
    1.4568    5.4734    1.9888 H   0  0  0  0  0  0
    1.4833    4.3236    0.6675 H   0  0  0  0  0  0
    5.5766    0.2202    1.7693 H   0  0  0  0  0  0
    1.9044   -1.1780    3.5495 H   0  0  0  0  0  0
    7.8331   -2.1380    4.3964 H   0  0  0  0  0  0
    8.4426   -2.1563    9.3772 H   0  0  0  0  0  0
    3.7475    0.5357   -3.0891 H   0  0  0  0  0  0
    3.8200   -3.1416   -0.8601 H   0  0  0  0  0  0
    9.9307   -2.9338    5.4347 H   0  0  0  0  0  0
   10.2346   -2.9453    7.8617 H   0  0  0  0  0  0
    6.2800   -3.2006   -1.0481 H   0  0  0  0  0  0
    6.2091    0.4647   -3.2742 H   0  0  0  0  0  0
    7.4678   -1.4003   -2.2531 H   0  0  0  0  0  0
   -0.3969    5.5012    3.4364 H   0  0  0  0  0  0
  1  4  1  0  0  0
  1  7  1  0  0  0
  1  8  2  0  0  0
  2 17  1  0  0  0
  2  3  1  0  0  0
  2 10  1  0  0  0
  3  5  2  0  0  0
  3 39  1  0  0  0
  4 11  2  0  0  0
  4 15  1  0  0  0
  5 16  1  0  0  0
  6  7  1  0  0  0
  6 14  1  0  0  0
  6 20  2  0  0  0
  7 19  1  0  0  0
  7 40  1  0  0  0
  8  9  1  0  0  0
  8 41  1  0  0  0
  9 15  1  0  0  0
 10 16  2  0  0  0
 10 30  1  0  0  0
 11 13  1  0  0  0
 11 42  1  0  0  0
 12 13  1  0  0  0
 12 18  2  0  0  0
 12 26  1  0  0  0
 13 21  2  0  0  0
 14 25  1  0  0  0
 14 43  1  0  0  0
 15 22  2  0  0  0
 16 31  1  0  0  0
 17 24  2  0  0  0
 17 23  1  0  0  0
 18 44  1  0  0  0
 18 64  1  0  0  0
 19 29  1  0  0  0
 19 45  1  0  0  0
 19 46  1  0  0  0
 21 22  1  0  0  0
 21 47  1  0  0  0
 22 48  1  0  0  0
 23 28  2  0  0  0
 23 49  1  0  0  0
 24 27  1  0  0  0
 24 50  1  0  0  0
 25 27  2  0  0  0
 25 28  1  0  0  0
 26 51  1  0  0  0
 26 52  1  0  0  0
 27 53  1  0  0  0
 28 54  1  0  0  0
 29 32  2  0  0  0
 29 33  1  0  0  0
 30 34  2  0  0  0
 30 55  1  0  0  0
 31 35  2  0  0  0
 31 56  1  0  0  0
 32 37  1  0  0  0
 32 57  1  0  0  0
 33 36  2  0  0  0
 33 58  1  0  0  0
 34 35  1  0  0  0
 34 59  1  0  0  0
 35 60  1  0  0  0
 36 38  1  0  0  0
 36 61  1  0  0  0
 37 38  2  0  0  0
 37 62  1  0  0  0
 38 63  1  0  0  0
M  CHG  1  18   1
M  END
> <chembl_id>
CHEMBL183384

> <chembl_pref_name>
None

> <s_m_source_file>
sdf/actives_sanitized.sdf

> <i_m_source_file_index>
65

> <i_lp_mmshare_version>
49012

> <i_m_ct_stereo_status>
1

> <i_f3d_flags>
0

> <s_epik_input>
W0hdXE49QyhbTkgyXSlcYyhbY0hdMSlbY0hdW2NIXWMoYzEyKXNbY0hdYzJbQ0BIXShbQ0gyXWMzW2NIXVtjSF1bY0hdW2NIXVtjSF0zKUMoPU8pW05IXWMoW2NIXVtjSF00KVtjSF1bY0hdYzQtbjVbY0hdbmMoYzU2KVtjSF1bY0hdW2NIXVtjSF02

> <s_epik_cmdline>
J2VwaWtfcHl0aG9uJywgJy1waHQnLCAnMC41JywgJy1waCcsICc3LjUnLCAnLW50JywgJy1tYScsICcyMDAnLCAnLWltYWUnLCAnPGluZmlsZS5tYWU+JywgJy1vbWFlJywgJzxvdXRmaWxlLm1hZT4n

> <r_epik_Ionization_Penalty>
  0.0112

> <r_epik_Ionization_Penalty_Charging>
  0.0010

> <r_epik_Ionization_Penalty_Neutral>
  0.0102

> <r_epik_State_Penalty>
  0.0078

> <r_epik_Charging_Adjusted_Penalty>
0.00877873498810205

> <i_epik_Tot_Q>
1

> <i_epik_Tot_abs_Q>
1

> <s_epik_Chemistry_Notes>
This compound has an imine and may undergo hydrolysis.

> <s_lp_Force_Field>
OPLS3e

> <r_lp_Energy>
51.794759

> <b_lp_Chiralities_Consistent>
1

> <s_lp_Variant>
sdf/actives_sanitized.sdf:65-1

$$$$
sdf/actives_sanitized.sdf:66
                    3D
 Schrodinger Suite 2020-1.
 65 70  0  0  1  0            999 V2000
    3.9585   -1.2415   -7.4742 N   0  0  0  0  0  0
    0.0354   -0.0787   -0.0693 C   0  0  0  0  0  0
    5.2786   -1.3274   -7.8751 C   0  0  0  0  0  0
   -0.8254    1.0766   -0.0978 C   0  0  0  0  0  0
    2.2572   -0.7258   -1.1120 C   0  0  0  0  0  0
    5.4554   -1.5852   -9.1430 N   0  0  0  0  0  0
    1.5527   -0.0783    0.1017 C   0  0  2  0  0  0
   -0.8107   -1.1685   -0.1995 C   0  0  0  0  0  0
    3.5109   -0.9364   -6.1682 C   0  0  0  0  0  0
   -2.1109   -0.7537   -0.3163 N   0  0  0  0  0  0
    3.2135   -1.4688   -8.6254 C   0  0  0  0  0  0
    2.0863   -0.0803   -2.2877 N   0  0  0  0  0  0
   -0.5988    2.4590   -0.0012 C   0  0  0  0  0  0
    2.3691   -0.1529   -5.9644 C   0  0  0  0  0  0
   -1.4330    4.8063    0.0293 C   0  0  0  0  0  0
   -1.6699    3.3628   -0.0664 C   0  0  0  0  0  0
    2.5946   -0.4036   -3.5608 C   0  0  0  0  0  0
   -2.1664    0.6203   -0.2568 C   0  0  0  0  0  0
    1.9177    0.1174   -4.6719 C   0  0  0  0  0  0
    4.1867   -1.6783   -9.6415 C   0  0  0  0  0  0
   -2.3763    5.5894    0.5399 N   0  3  0  0  0  0
    1.9705   -0.6883    1.4684 C   0  0  0  0  0  0
    2.8930   -1.7727   -0.9764 O   0  0  0  0  0  0
    4.1853   -1.4623   -5.0602 C   0  0  0  0  0  0
    3.7372   -1.1942   -3.7675 C   0  0  0  0  0  0
   -2.9684    2.8597   -0.2259 C   0  0  0  0  0  0
   -3.2499    1.4979   -0.3243 C   0  0  0  0  0  0
   -0.2783    5.3046   -0.3979 N   0  0  0  0  0  0
    0.8167    0.8906   -4.5099 F   0  0  0  0  0  0
    1.4270    0.0848    2.6655 C   0  0  0  0  0  0
    1.8398   -1.5314   -8.9028 C   0  0  0  0  0  0
    3.7829   -1.9418  -10.9582 C   0  0  0  0  0  0
    2.0795    1.2418    3.1001 C   0  0  0  0  0  0
    0.2699   -0.3532    3.3162 C   0  0  0  0  0  0
    1.4715   -1.7948  -10.2243 C   0  0  0  0  0  0
    2.4164   -1.9941  -11.2297 C   0  0  0  0  0  0
   -0.2348    0.3662    4.3963 C   0  0  0  0  0  0
    1.5753    1.9599    4.1813 C   0  0  0  0  0  0
    0.4204    1.5191    4.8239 C   0  0  0  0  0  0
    6.0695   -1.1688   -7.1565 H   0  0  0  0  0  0
    1.9120    0.9524    0.1087 H   0  0  0  0  0  0
   -0.5864   -2.2254   -0.2202 H   0  0  0  0  0  0
   -2.8803   -1.3995   -0.4231 H   0  0  0  0  0  0
    1.4447    0.6991   -2.2801 H   0  0  0  0  0  0
    0.4077    2.8261    0.1324 H   0  0  0  0  0  0
    1.8357    0.2723   -6.8015 H   0  0  0  0  0  0
   -3.2434    5.1847    0.8618 H   0  0  0  0  0  0
    1.6618   -1.7337    1.5367 H   0  0  0  0  0  0
    3.0587   -0.7132    1.5552 H   0  0  0  0  0  0
    5.0607   -2.0821   -5.1900 H   0  0  0  0  0  0
    4.3031   -1.5993   -2.9431 H   0  0  0  0  0  0
   -3.7980    3.5485   -0.2851 H   0  0  0  0  0  0
   -4.2641    1.1467   -0.4484 H   0  0  0  0  0  0
   -0.1049    6.2973   -0.3388 H   0  0  0  0  0  0
    0.4197    4.6871   -0.7861 H   0  0  0  0  0  0
    1.0874   -1.3938   -8.1411 H   0  0  0  0  0  0
    4.5069   -2.1015  -11.7437 H   0  0  0  0  0  0
    2.9729    1.5859    2.5997 H   0  0  0  0  0  0
   -0.2415   -1.2444    2.9824 H   0  0  0  0  0  0
    0.4223   -1.8491  -10.4754 H   0  0  0  0  0  0
    2.0833   -2.1963  -12.2372 H   0  0  0  0  0  0
   -1.1299    0.0318    4.9002 H   0  0  0  0  0  0
    2.0772    2.8542    4.5201 H   0  0  0  0  0  0
    0.0299    2.0764    5.6628 H   0  0  0  0  0  0
   -2.2220    6.5847    0.6083 H   0  0  0  0  0  0
  1  3  1  0  0  0
  1  9  1  0  0  0
  1 11  1  0  0  0
  2  7  1  0  0  0
  2  4  1  0  0  0
  2  8  2  0  0  0
  3  6  2  0  0  0
  3 40  1  0  0  0
  4 13  2  0  0  0
  4 18  1  0  0  0
  5 12  1  0  0  0
  5  7  1  0  0  0
  5 23  2  0  0  0
  6 20  1  0  0  0
  7 22  1  0  0  0
  7 41  1  0  0  0
  8 10  1  0  0  0
  8 42  1  0  0  0
  9 14  2  0  0  0
  9 24  1  0  0  0
 10 18  1  0  0  0
 10 43  1  0  0  0
 11 20  2  0  0  0
 11 31  1  0  0  0
 12 17  1  0  0  0
 12 44  1  0  0  0
 13 16  1  0  0  0
 13 45  1  0  0  0
 14 19  1  0  0  0
 14 46  1  0  0  0
 15 16  1  0  0  0
 15 21  2  0  0  0
 15 28  1  0  0  0
 16 26  2  0  0  0
 17 25  1  0  0  0
 17 19  2  0  0  0
 18 27  2  0  0  0
 19 29  1  0  0  0
 20 32  1  0  0  0
 21 47  1  0  0  0
 21 65  1  0  0  0
 22 30  1  0  0  0
 22 48  1  0  0  0
 22 49  1  0  0  0
 24 25  2  0  0  0
 24 50  1  0  0  0
 25 51  1  0  0  0
 26 27  1  0  0  0
 26 52  1  0  0  0
 27 53  1  0  0  0
 28 54  1  0  0  0
 28 55  1  0  0  0
 30 33  2  0  0  0
 30 34  1  0  0  0
 31 35  2  0  0  0
 31 56  1  0  0  0
 32 36  2  0  0  0
 32 57  1  0  0  0
 33 38  1  0  0  0
 33 58  1  0  0  0
 34 37  2  0  0  0
 34 59  1  0  0  0
 35 36  1  0  0  0
 35 60  1  0  0  0
 36 61  1  0  0  0
 37 39  1  0  0  0
 37 62  1  0  0  0
 38 39  2  0  0  0
 38 63  1  0  0  0
 39 64  1  0  0  0
M  CHG  1  21   1
M  END
> <chembl_id>
CHEMBL360894

> <chembl_pref_name>
None

> <s_m_source_file>
sdf/actives_sanitized.sdf

> <i_m_source_file_index>
66

> <i_lp_mmshare_version>
49012

> <i_m_ct_stereo_status>
1

> <i_f3d_flags>
0

> <s_epik_input>
W2NIXTFbY0hdW2NIXVtjSF1jKGMxMiluW2NIXW4yLWMzW2NIXWMoRiljKFtjSF1bY0hdMylbTkhdQyg9TylbQ0BIXShbQ0gyXWM0W2NIXVtjSF1bY0hdW2NIXVtjSF00KWM1W2NIXVtuSF1jKGM1NilbY0hdW2NIXWMoW2NIXTYpL0MoPU4vW0hdKVtOSDJd

> <s_epik_cmdline>
J2VwaWtfcHl0aG9uJywgJy1waHQnLCAnMC41JywgJy1waCcsICc3LjUnLCAnLW50JywgJy1tYScsICcyMDAnLCAnLWltYWUnLCAnPGluZmlsZS5tYWU+JywgJy1vbWFlJywgJzxvdXRmaWxlLm1hZT4n

> <r_epik_Ionization_Penalty>
  0.0112

> <r_epik_Ionization_Penalty_Charging>
  0.0010

> <r_epik_Ionization_Penalty_Neutral>
  0.0102

> <r_epik_State_Penalty>
  0.0078

> <r_epik_Charging_Adjusted_Penalty>
0.00877873498810205

> <i_epik_Tot_Q>
1

> <i_epik_Tot_abs_Q>
1

> <s_epik_Chemistry_Notes>
This compound has an imine and may undergo hydrolysis.

> <s_lp_Force_Field>
OPLS3e

> <r_lp_Energy>
49.226382

> <b_lp_Chiralities_Consistent>
1

> <s_lp_Variant>
sdf/actives_sanitized.sdf:66-1

$$$$
sdf/actives_sanitized.sdf:67
                    3D
 Schrodinger Suite 2020-1.
 64 69  0  0  1  0            999 V2000
   -0.3781    1.4187    0.0797 C   0  0  0  0  0  0
   -1.2319    1.9908   -0.8788 C   0  0  0  0  0  0
   -1.5834    3.3359   -0.8072 C   0  0  0  0  0  0
   -1.0878    4.1269    0.2241 C   0  0  0  0  0  0
   -0.2433    3.5833    1.1862 C   0  0  0  0  0  0
    0.1061    2.2383    1.1141 C   0  0  0  0  0  0
   -4.8032   -2.1174   -3.9608 C   0  0  0  0  0  0
   -5.1052   -1.9530   -2.6086 C   0  0  0  0  0  0
   -2.4527   -1.6042   -3.5619 C   0  0  0  0  0  0
   -3.4977   -1.9447   -4.4198 C   0  0  0  0  0  0
   -2.7624   -1.4380   -2.2049 C   0  0  0  0  0  0
   -4.0823   -1.6126   -1.7076 C   0  0  0  0  0  0
   -4.0445   -1.3795   -0.2926 C   0  0  0  0  0  0
   -1.9633   -1.1009   -1.1271 N   0  0  0  0  0  0
   -2.7246   -1.0954    0.0348 C   0  0  0  0  0  0
   -2.1089   -0.7495    1.3864 C   0  0  0  0  0  0
   -0.5678   -0.7843    1.3143 C   0  0  0  0  0  0
    0.0193   -0.0852    0.0483 C   0  0  1  0  0  0
   -0.5091   -0.8870   -1.1908 C   0  0  0  0  0  0
    1.4961   -0.0745    0.0501 N   0  0  0  0  0  0
    2.3515   -1.1053    0.1932 C   0  0  0  0  0  0
    3.7998   -0.7129    0.1074 C   0  0  0  0  0  0
    2.0317   -2.2762    0.3943 O   0  0  0  0  0  0
    4.4943   -0.2974    1.2605 C   0  0  0  0  0  0
    5.8380    0.0678    1.1734 C   0  0  0  0  0  0
    6.5104    0.0276   -0.0517 C   0  0  0  0  0  0
    5.8225   -0.3853   -1.1968 C   0  0  0  0  0  0
    4.4786   -0.7543   -1.1260 C   0  0  0  0  0  0
    3.7004   -1.2510   -2.5952 Cl  0  0  0  0  0  0
    7.8692    0.4018   -0.1319 N   0  0  0  0  0  0
   -5.9109   -2.4899   -4.9298 C   0  0  0  0  0  0
    3.7351   -0.2103    2.8183 Cl  0  0  0  0  0  0
    8.8421    0.3434    0.8424 C   0  0  0  0  0  0
   10.0003    0.7764    0.4114 N   0  0  0  0  0  0
    9.8183    1.1527   -0.9155 N   0  0  0  0  0  0
    8.5622    0.9209   -1.2039 C   0  0  0  0  0  0
   -5.2356   -1.4400    0.6557 C   0  0  0  0  0  0
   -5.7614   -2.8680    0.8880 C   0  0  0  0  0  0
   -4.9992   -3.8379    0.6724 O   0  5  0  0  0  0
   -6.9383   -2.9650    1.2999 O   0  0  0  0  0  0
   -1.6366    1.4140   -1.6949 H   0  0  0  0  0  0
   -2.2400    3.7638   -1.5504 H   0  0  0  0  0  0
   -1.3617    5.1702    0.2787 H   0  0  0  0  0  0
    0.1372    4.2011    1.9863 H   0  0  0  0  0  0
    0.7589    1.8305    1.8725 H   0  0  0  0  0  0
   -6.1166   -2.0941   -2.2555 H   0  0  0  0  0  0
   -1.4495   -1.4759   -3.9406 H   0  0  0  0  0  0
   -3.2797   -2.0778   -5.4697 H   0  0  0  0  0  0
   -2.4369    0.2445    1.6921 H   0  0  0  0  0  0
   -2.4569   -1.4382    2.1572 H   0  0  0  0  0  0
   -0.1404   -0.3713    2.2290 H   0  0  0  0  0  0
   -0.2780   -1.8355    1.3225 H   0  0  0  0  0  0
   -0.0470   -1.8733   -1.2474 H   0  0  0  0  0  0
   -0.2467   -0.3851   -2.1231 H   0  0  0  0  0  0
    1.8978    0.7661   -0.3385 H   0  0  0  0  0  0
    6.3502    0.3920    2.0679 H   0  0  0  0  0  0
    6.3274   -0.4296   -2.1512 H   0  0  0  0  0  0
   -5.5530   -2.5774   -5.9564 H   0  0  0  0  0  0
   -6.6997   -1.7374   -4.9053 H   0  0  0  0  0  0
   -6.3596   -3.4407   -4.6396 H   0  0  0  0  0  0
    8.6195   -0.0350    1.8292 H   0  0  0  0  0  0
    8.0713    1.1042   -2.1483 H   0  0  0  0  0  0
   -4.9854   -1.0165    1.6288 H   0  0  0  0  0  0
   -6.0452   -0.8291    0.2534 H   0  0  0  0  0  0
  1  2  2  0  0  0
  1  6  1  0  0  0
  1 18  1  0  0  0
  2  3  1  0  0  0
  2 41  1  0  0  0
  3  4  2  0  0  0
  3 42  1  0  0  0
  4  5  1  0  0  0
  4 43  1  0  0  0
  5  6  2  0  0  0
  5 44  1  0  0  0
  6 45  1  0  0  0
  7  8  2  0  0  0
  7 10  1  0  0  0
  7 31  1  0  0  0
  8 12  1  0  0  0
  8 46  1  0  0  0
  9 11  1  0  0  0
  9 10  2  0  0  0
  9 47  1  0  0  0
 10 48  1  0  0  0
 11 12  2  0  0  0
 11 14  1  0  0  0
 12 13  1  0  0  0
 13 15  2  0  0  0
 13 37  1  0  0  0
 14 15  1  0  0  0
 14 19  1  0  0  0
 15 16  1  0  0  0
 16 17  1  0  0  0
 16 49  1  0  0  0
 16 50  1  0  0  0
 17 18  1  0  0  0
 17 51  1  0  0  0
 17 52  1  0  0  0
 18 19  1  0  0  0
 18 20  1  0  0  0
 19 53  1  0  0  0
 19 54  1  0  0  0
 20 21  1  0  0  0
 20 55  1  0  0  0
 21 22  1  0  0  0
 21 23  2  0  0  0
 22 24  2  0  0  0
 22 28  1  0  0  0
 24 25  1  0  0  0
 24 32  1  0  0  0
 25 26  2  0  0  0
 25 56  1  0  0  0
 26 27  1  0  0  0
 26 30  1  0  0  0
 27 28  2  0  0  0
 27 57  1  0  0  0
 28 29  1  0  0  0
 30 33  1  0  0  0
 30 36  1  0  0  0
 31 58  1  0  0  0
 31 59  1  0  0  0
 31 60  1  0  0  0
 33 34  2  0  0  0
 33 61  1  0  0  0
 34 35  1  0  0  0
 35 36  2  0  0  0
 36 62  1  0  0  0
 37 38  1  0  0  0
 37 63  1  0  0  0
 37 64  1  0  0  0
 38 39  1  0  0  0
 38 40  2  0  0  0
M  CHG  1  39  -1
M  END
> <chembl_id>
CHEMBL3628963

> <chembl_pref_name>
None

> <i_m_ct_stereo_status>
1

> <s_m_source_file>
sdf/actives_sanitized.sdf

> <i_m_source_file_index>
67

> <i_lp_mmshare_version>
49012

> <i_f3d_flags>
0

> <s_epik_input>
W2NIXTFbY0hdYyhbQ0gzXSlbY0hdYyhjMTIpYyhbQ0gyXUMoPU8pW09IXSljM24yW0NIMl1bQ0BdKFtDSDJdW0NIMl0zKShjNFtjSF1bY0hdW2NIXVtjSF1bY0hdNClbTkhdQyg9TyljNWMoQ2wpW2NIXWMoW2NIXWM1Q2wpLW42W2NIXW5uW2NIXTY=

> <s_epik_cmdline>
J2VwaWtfcHl0aG9uJywgJy1waHQnLCAnMC41JywgJy1waCcsICc3LjUnLCAnLW50JywgJy1tYScsICcyMDAnLCAnLWltYWUnLCAnPGluZmlsZS5tYWU+JywgJy1vbWFlJywgJzxvdXRmaWxlLm1hZT4n

> <r_lp_tautomer_probability>
1

> <r_epik_Ionization_Penalty>
  0.0006

> <r_epik_Ionization_Penalty_Charging>
  0.0003

> <r_epik_Ionization_Penalty_Neutral>
  0.0002

> <r_epik_State_Penalty>
 -0.0000

> <r_epik_Charging_Adjusted_Penalty>
0.000337570273767193

> <i_epik_Tot_Q>
-1

> <i_epik_Tot_abs_Q>
1

> <s_lp_Force_Field>
OPLS3e

> <r_lp_Energy>
50.508679

> <b_lp_Chiralities_Consistent>
1

> <s_lp_Variant>
sdf/actives_sanitized.sdf:67-1

$$$$
sdf/actives_sanitized.sdf:68
                    3D
 Schrodinger Suite 2020-1.
 70 76  0  0  1  0            999 V2000
   -0.3691    1.4245    0.1391 C   0  0  0  0  0  0
   -1.2404    2.0200   -0.7888 C   0  0  0  0  0  0
   -1.5945    3.3615   -0.6742 C   0  0  0  0  0  0
   -1.0852    4.1251    0.3710 C   0  0  0  0  0  0
   -0.2230    3.5578    1.3033 C   0  0  0  0  0  0
    0.1298    2.2167    1.1877 C   0  0  0  0  0  0
   -4.8107   -2.0949   -3.9430 C   0  0  0  0  0  0
   -5.1114   -1.9453   -2.5890 C   0  0  0  0  0  0
   -2.4643   -1.5693   -3.5430 C   0  0  0  0  0  0
   -3.5074   -1.9111   -4.4021 C   0  0  0  0  0  0
   -2.7724   -1.4165   -2.1838 C   0  0  0  0  0  0
   -4.0889   -1.6111   -1.6830 C   0  0  0  0  0  0
   -4.0395   -1.3927   -0.2638 C   0  0  0  0  0  0
   -1.9702   -1.0757   -1.1090 N   0  0  0  0  0  0
   -2.7195   -1.0915    0.0617 C   0  0  0  0  0  0
   -2.0831   -0.7618    1.4103 C   0  0  0  0  0  0
   -0.5442   -0.8090    1.3175 C   0  0  0  0  0  0
    0.0275   -0.0781    0.0631 C   0  0  1  0  0  0
   -0.5186   -0.8460   -1.1893 C   0  0  0  0  0  0
    1.5042   -0.0706    0.0453 N   0  0  0  0  0  0
    2.3571   -1.1079    0.1510 C   0  0  0  0  0  0
    3.8062   -0.7205    0.0574 C   0  0  0  0  0  0
    2.0341   -2.2821    0.3263 O   0  0  0  0  0  0
    4.5139   -0.3276    1.2102 C   0  0  0  0  0  0
    5.8602    0.0259    1.1174 C   0  0  0  0  0  0
    6.5231   -0.0042   -0.1131 C   0  0  0  0  0  0
    5.8211   -0.3916   -1.2587 C   0  0  0  0  0  0
    4.4741   -0.7480   -1.1823 C   0  0  0  0  0  0
    3.6787   -1.2136   -2.6523 Cl  0  0  0  0  0  0
    7.8865    0.3531   -0.1964 N   0  0  0  0  0  0
   -5.9191   -2.4556   -4.9159 C   0  0  0  0  0  0
    3.7690   -0.2562    2.7758 Cl  0  0  0  0  0  0
    8.8621    0.2765    0.7742 C   0  0  0  0  0  0
   10.0242    0.6982    0.3422 N   0  0  0  0  0  0
    9.8428    1.0836   -0.9819 N   0  0  0  0  0  0
    8.5831    0.8685   -1.2679 C   0  0  0  0  0  0
   -5.1885   -1.4920    0.6849 C   0  0  0  0  0  0
   -5.3926   -0.5323    1.6855 C   0  0  0  0  0  0
   -6.4932   -0.6389    2.5400 C   0  0  0  0  0  0
   -7.3717   -1.7093    2.3619 C   0  0  0  0  0  0
   -7.2046   -2.6458    1.3943 N   0  0  0  0  0  0
   -6.1296   -2.5233    0.5745 C   0  0  0  0  0  0
   -6.7125    0.3036    3.5439 N   0  0  0  0  0  0
   -1.6569    1.4643   -1.6137 H   0  0  0  0  0  0
   -2.2639    3.8080   -1.3946 H   0  0  0  0  0  0
   -1.3621    5.1652    0.4600 H   0  0  0  0  0  0
    0.1686    4.1540    2.1144 H   0  0  0  0  0  0
    0.7956    1.7902    1.9242 H   0  0  0  0  0  0
   -6.1252   -2.0864   -2.2446 H   0  0  0  0  0  0
   -1.4633   -1.4278   -3.9230 H   0  0  0  0  0  0
   -3.2905   -2.0321   -5.4538 H   0  0  0  0  0  0
   -2.3901    0.2347    1.7279 H   0  0  0  0  0  0
   -2.4277   -1.4504    2.1825 H   0  0  0  0  0  0
   -0.1008   -0.4235    2.2369 H   0  0  0  0  0  0
   -0.2619   -1.8621    1.2930 H   0  0  0  0  0  0
   -0.0498   -1.8260   -1.2863 H   0  0  0  0  0  0
   -0.2761   -0.3150   -2.1111 H   0  0  0  0  0  0
    1.9045    0.7786   -0.3262 H   0  0  0  0  0  0
    6.3828    0.3307    2.0125 H   0  0  0  0  0  0
    6.3174   -0.4270   -2.2178 H   0  0  0  0  0  0
   -5.5738   -2.4737   -5.9504 H   0  0  0  0  0  0
   -6.7307   -1.7306   -4.8439 H   0  0  0  0  0  0
   -6.3335   -3.4337   -4.6696 H   0  0  0  0  0  0
    8.6390   -0.1054    1.7595 H   0  0  0  0  0  0
    8.0923    1.0628   -2.2101 H   0  0  0  0  0  0
   -4.7077    0.2960    1.7922 H   0  0  0  0  0  0
   -8.2370   -1.8320    2.9972 H   0  0  0  0  0  0
   -6.0267   -3.2903   -0.1790 H   0  0  0  0  0  0
   -7.5231    0.2157    4.1399 H   0  0  0  0  0  0
   -6.0820    1.0871    3.6361 H   0  0  0  0  0  0
  1  2  2  0  0  0
  1  6  1  0  0  0
  1 18  1  0  0  0
  2  3  1  0  0  0
  2 44  1  0  0  0
  3  4  2  0  0  0
  3 45  1  0  0  0
  4  5  1  0  0  0
  4 46  1  0  0  0
  5  6  2  0  0  0
  5 47  1  0  0  0
  6 48  1  0  0  0
  7  8  2  0  0  0
  7 10  1  0  0  0
  7 31  1  0  0  0
  8 12  1  0  0  0
  8 49  1  0  0  0
  9 11  1  0  0  0
  9 10  2  0  0  0
  9 50  1  0  0  0
 10 51  1  0  0  0
 11 12  2  0  0  0
 11 14  1  0  0  0
 12 13  1  0  0  0
 13 15  2  0  0  0
 13 37  1  0  0  0
 14 15  1  0  0  0
 14 19  1  0  0  0
 15 16  1  0  0  0
 16 17  1  0  0  0
 16 52  1  0  0  0
 16 53  1  0  0  0
 17 18  1  0  0  0
 17 54  1  0  0  0
 17 55  1  0  0  0
 18 19  1  0  0  0
 18 20  1  0  0  0
 19 56  1  0  0  0
 19 57  1  0  0  0
 20 21  1  0  0  0
 20 58  1  0  0  0
 21 22  1  0  0  0
 21 23  2  0  0  0
 22 24  2  0  0  0
 22 28  1  0  0  0
 24 25  1  0  0  0
 24 32  1  0  0  0
 25 26  2  0  0  0
 25 59  1  0  0  0
 26 27  1  0  0  0
 26 30  1  0  0  0
 27 28  2  0  0  0
 27 60  1  0  0  0
 28 29  1  0  0  0
 30 33  1  0  0  0
 30 36  1  0  0  0
 31 61  1  0  0  0
 31 62  1  0  0  0
 31 63  1  0  0  0
 33 34  2  0  0  0
 33 64  1  0  0  0
 34 35  1  0  0  0
 35 36  2  0  0  0
 36 65  1  0  0  0
 37 38  2  0  0  0
 37 42  1  0  0  0
 38 39  1  0  0  0
 38 66  1  0  0  0
 39 40  2  0  0  0
 39 43  1  0  0  0
 40 41  1  0  0  0
 40 67  1  0  0  0
 41 42  2  0  0  0
 42 68  1  0  0  0
 43 69  1  0  0  0
 43 70  1  0  0  0
M  END
> <chembl_id>
CHEMBL3628966

> <chembl_pref_name>
None

> <i_m_ct_stereo_status>
1

> <s_m_source_file>
sdf/actives_sanitized.sdf

> <i_m_source_file_index>
68

> <i_lp_mmshare_version>
49012

> <i_f3d_flags>
0

> <s_epik_input>
W2NIXTFuW2NIXWMoW05IMl0pW2NIXWMxLWMoYyhjMjMpW2NIXWMoW0NIM10pW2NIXVtjSF0yKWM0bjNbQ0gyXVtDQF0oW0NIMl1bQ0gyXTQpKGM1W2NIXVtjSF1bY0hdW2NIXVtjSF01KVtOSF1DKD1PKWM2YyhDbClbY0hdYyhbY0hdYzZDbCktbjdbY0hdbm5bY0hdNw==

> <s_epik_cmdline>
J2VwaWtfcHl0aG9uJywgJy1waHQnLCAnMC41JywgJy1waCcsICc3LjUnLCAnLW50JywgJy1tYScsICcyMDAnLCAnLWltYWUnLCAnPGluZmlsZS5tYWU+JywgJy1vbWFlJywgJzxvdXRmaWxlLm1hZT4n

> <r_lp_tautomer_probability>
0.999999999999999

> <r_epik_Ionization_Penalty>
  0.0115

> <r_epik_Ionization_Penalty_Charging>
  0.0000

> <r_epik_Ionization_Penalty_Neutral>
  0.0115

> <r_epik_State_Penalty>
  0.0087

> <r_epik_Charging_Adjusted_Penalty>
0.00871121667340257

> <i_epik_Tot_Q>
0

> <i_epik_Tot_abs_Q>
0

> <s_lp_Force_Field>
OPLS3e

> <r_lp_Energy>
60.737342

> <b_lp_Chiralities_Consistent>
1

> <s_lp_Variant>
sdf/actives_sanitized.sdf:68-1

$$$$
sdf/actives_sanitized.sdf:69
                    3D
 Schrodinger Suite 2020-1.
 61 66  0  0  1  0            999 V2000
    0.1765    0.1943   -0.0853 C   0  0  0  0  0  0
   -0.6629    1.2615    0.2264 N   0  0  0  0  0  0
   -1.9546    0.9166    0.0408 N   0  0  0  0  0  0
   -0.6884   -0.8681   -0.3239 C   0  0  0  0  0  0
    7.5764   -2.5525    0.4084 N   0  0  0  0  0  0
   -1.9894   -0.3696   -0.2257 C   0  0  0  0  0  0
    1.6133    0.2136   -0.2447 C   0  0  0  0  0  0
    8.0811   -3.5239    1.2523 C   0  0  0  0  0  0
    9.3633   -3.7435    1.1364 N   0  0  0  0  0  0
   -0.3520    2.6380    0.4288 C   0  0  0  0  0  0
    8.6681   -2.1042   -0.3252 C   0  0  0  0  0  0
    2.3055    4.7118    2.1739 C   0  0  0  0  0  0
    2.2059   -0.9297    0.1657 N   0  0  0  0  0  0
    9.7616   -2.8724    0.1617 C   0  0  0  0  0  0
    6.2357   -2.1064    0.3688 C   0  0  0  0  0  0
    0.7704    3.0038    1.1860 C   0  0  0  0  0  0
    1.1172    4.3498    1.3954 C   0  0  0  0  0  0
   -3.2786   -1.1065   -0.4205 C   0  0  0  0  0  0
    2.9783    5.8101    1.8515 N   0  3  0  0  0  0
    2.1893    1.1940   -0.7172 O   0  0  0  0  0  0
   -5.6908   -1.0731   -0.7354 N   0  0  0  0  0  0
    5.9429   -0.7553    0.1597 C   0  0  0  0  0  0
    5.1949   -3.0328    0.4891 C   0  0  0  0  0  0
    3.5739   -1.2585    0.2097 C   0  0  0  0  0  0
    2.6814    3.9322    3.1808 N   0  0  0  0  0  0
    3.8717   -2.6072    0.4170 C   0  0  0  0  0  0
    4.6196   -0.3295    0.0879 C   0  0  0  0  0  0
   -4.5043   -0.4369   -0.5597 C   0  0  0  0  0  0
   -1.1614    3.6501   -0.1080 C   0  0  0  0  0  0
    8.8354   -1.1529   -1.3426 C   0  0  0  0  0  0
    0.2887    5.3350    0.8330 C   0  0  0  0  0  0
   -0.8402    4.9895    0.0931 C   0  0  0  0  0  0
   -3.3047   -2.5081   -0.4676 C   0  0  0  0  0  0
   -5.6814   -2.4288   -0.7767 C   0  0  0  0  0  0
   11.0464   -2.6784   -0.3659 C   0  0  0  0  0  0
   -4.5145   -3.1815   -0.6472 C   0  0  0  0  0  0
   10.1272   -0.9846   -1.8462 C   0  0  0  0  0  0
   11.2086   -1.7256   -1.3710 C   0  0  0  0  0  0
   -0.4077   -1.8769   -0.5897 H   0  0  0  0  0  0
    7.4244   -4.0232    1.9502 H   0  0  0  0  0  0
    1.5889   -1.6656    0.4769 H   0  0  0  0  0  0
    1.3804    2.2254    1.6218 H   0  0  0  0  0  0
    3.7999    6.0701    2.3771 H   0  0  0  0  0  0
    6.7319   -0.0227    0.0754 H   0  0  0  0  0  0
    5.4022   -4.0835    0.6326 H   0  0  0  0  0  0
    3.4998    4.1683    3.7226 H   0  0  0  0  0  0
    2.1446    3.1061    3.4020 H   0  0  0  0  0  0
    3.0802   -3.3367    0.5159 H   0  0  0  0  0  0
    4.4393    0.7249   -0.0476 H   0  0  0  0  0  0
   -4.5564    0.6419   -0.5345 H   0  0  0  0  0  0
   -2.0366    3.4092   -0.6943 H   0  0  0  0  0  0
    8.0131   -0.5744   -1.7360 H   0  0  0  0  0  0
    0.5058    6.3851    0.9704 H   0  0  0  0  0  0
   -1.4670    5.7621   -0.3280 H   0  0  0  0  0  0
   -2.3965   -3.0829   -0.3626 H   0  0  0  0  0  0
   -6.6366   -2.9134   -0.9166 H   0  0  0  0  0  0
   11.8899   -3.2500   -0.0073 H   0  0  0  0  0  0
   -4.5460   -4.2604   -0.6837 H   0  0  0  0  0  0
   10.2935   -0.2602   -2.6302 H   0  0  0  0  0  0
   12.1896   -1.5605   -1.7921 H   0  0  0  0  0  0
    2.6690    6.3764    1.0750 H   0  0  0  0  0  0
  1  2  1  0  0  0
  1  4  2  0  0  0
  1  7  1  0  0  0
  2  3  1  0  0  0
  2 10  1  0  0  0
  3  6  2  0  0  0
  4  6  1  0  0  0
  4 39  1  0  0  0
  5 15  1  0  0  0
  5  8  1  0  0  0
  5 11  1  0  0  0
  6 18  1  0  0  0
  7 13  1  0  0  0
  7 20  2  0  0  0
  8  9  2  0  0  0
  8 40  1  0  0  0
  9 14  1  0  0  0
 10 16  2  0  0  0
 10 29  1  0  0  0
 11 14  2  0  0  0
 11 30  1  0  0  0
 12 17  1  0  0  0
 12 19  2  0  0  0
 12 25  1  0  0  0
 13 24  1  0  0  0
 13 41  1  0  0  0
 14 35  1  0  0  0
 15 22  2  0  0  0
 15 23  1  0  0  0
 16 17  1  0  0  0
 16 42  1  0  0  0
 17 31  2  0  0  0
 18 28  1  0  0  0
 18 33  2  0  0  0
 19 43  1  0  0  0
 19 61  1  0  0  0
 21 28  2  0  0  0
 21 34  1  0  0  0
 22 27  1  0  0  0
 22 44  1  0  0  0
 23 26  2  0  0  0
 23 45  1  0  0  0
 24 26  1  0  0  0
 24 27  2  0  0  0
 25 46  1  0  0  0
 25 47  1  0  0  0
 26 48  1  0  0  0
 27 49  1  0  0  0
 28 50  1  0  0  0
 29 32  2  0  0  0
 29 51  1  0  0  0
 30 37  2  0  0  0
 30 52  1  0  0  0
 31 32  1  0  0  0
 31 53  1  0  0  0
 32 54  1  0  0  0
 33 36  1  0  0  0
 33 55  1  0  0  0
 34 36  2  0  0  0
 34 56  1  0  0  0
 35 38  2  0  0  0
 35 57  1  0  0  0
 36 58  1  0  0  0
 37 38  1  0  0  0
 37 59  1  0  0  0
 38 60  1  0  0  0
M  CHG  1  19   1
M  END
> <chembl_id>
CHEMBL183002

> <chembl_pref_name>
None

> <s_m_source_file>
sdf/actives_sanitized.sdf

> <i_m_source_file_index>
69

> <i_lp_mmshare_version>
49012

> <i_m_ct_stereo_status>
1

> <i_f3d_flags>
0

> <s_epik_input>
W2NIXTFbY0hdW2NIXW5bY0hdYzEtYyhbY0hdMilubigtYzNbY0hdYygvQyg9Ti9bSF0pW05IMl0pW2NIXVtjSF1bY0hdMyljMkMoPU8pW05IXWMoW2NIXVtjSF00KVtjSF1bY0hdYzQtbjVbY0hdbmMoYzU2KVtjSF1bY0hdW2NIXVtjSF02

> <s_epik_cmdline>
J2VwaWtfcHl0aG9uJywgJy1waHQnLCAnMC41JywgJy1waCcsICc3LjUnLCAnLW50JywgJy1tYScsICcyMDAnLCAnLWltYWUnLCAnPGluZmlsZS5tYWU+JywgJy1vbWFlJywgJzxvdXRmaWxlLm1hZT4n

> <r_lp_tautomer_probability>
1

> <r_epik_Ionization_Penalty>
  0.0122

> <r_epik_Ionization_Penalty_Charging>
  0.0010

> <r_epik_Ionization_Penalty_Neutral>
  0.0112

> <r_epik_State_Penalty>
  0.0078

> <r_epik_Charging_Adjusted_Penalty>
0.00877873498810205

> <i_epik_Tot_Q>
1

> <i_epik_Tot_abs_Q>
1

> <s_epik_Chemistry_Notes>
This compound has an imine and may undergo hydrolysis.

> <s_lp_Force_Field>
OPLS3e

> <r_lp_Energy>
57.476925

> <b_lp_Chiralities_Consistent>
1

> <s_lp_Variant>
sdf/actives_sanitized.sdf:69-1

$$$$
sdf/actives_sanitized.sdf:70
                    3D
 Schrodinger Suite 2020-1.
 49 52  0  0  1  0            999 V2000
    0.2277    0.1034    0.1996 C   0  0  0  0  0  0
   -0.5900    1.1933   -0.0911 N   0  0  0  0  0  0
   -1.8899    0.8671    0.0703 N   0  0  0  0  0  0
   -1.9485   -0.4231    0.3102 C   0  0  0  0  0  0
   -0.6600   -0.9479    0.4012 C   0  0  0  0  0  0
    1.6634    0.0918    0.3757 C   0  0  0  0  0  0
   -3.2778   -1.1414    0.4680 C   0  0  0  0  0  0
   -0.2534    2.5687   -0.2532 C   0  0  0  0  0  0
    7.5506   -2.8681   -0.0126 N   0  0  0  0  0  0
    9.7414   -3.0608    0.5034 N   0  0  0  0  0  0
    2.4346    4.6436   -1.9485 C   0  0  0  0  0  0
    2.2361   -1.0673   -0.0185 N   0  0  0  0  0  0
    8.6265   -2.4016    0.7124 C   0  0  0  0  0  0
    0.8739    2.9354   -1.0024 C   0  0  0  0  0  0
    1.2453    4.2804   -1.1725 C   0  0  0  0  0  0
    6.2240   -2.3882   -0.0158 C   0  0  0  0  0  0
    3.1355    5.7135   -1.5925 N   0  3  0  0  0  0
    8.0785   -3.9155   -0.7309 C   0  0  0  0  0  0
    2.2545    1.0593    0.8560 O   0  0  0  0  0  0
    9.4168   -3.9876   -0.3782 C   0  0  0  0  0  0
   -3.5110   -1.9358   -0.5760 F   0  0  0  0  0  0
   -3.2788   -1.9028    1.5620 F   0  0  0  0  0  0
   -4.3057   -0.2960    0.5700 F   0  0  0  0  0  0
    3.5929   -1.4426   -0.0038 C   0  0  0  0  0  0
    5.1596   -3.2767   -0.1955 C   0  0  0  0  0  0
    5.9733   -1.0239    0.1592 C   0  0  0  0  0  0
    2.7813    3.8938   -2.9880 N   0  0  0  0  0  0
    3.8513   -2.8023   -0.1925 C   0  0  0  0  0  0
    4.6642   -0.5503    0.1623 C   0  0  0  0  0  0
   -1.0417    3.5790    0.3168 C   0  0  0  0  0  0
    0.4393    5.2637   -0.5750 C   0  0  0  0  0  0
   -0.6939    4.9174    0.1578 C   0  0  0  0  0  0
   -0.4082   -1.9716    0.6392 H   0  0  0  0  0  0
    1.6086   -1.7864   -0.3474 H   0  0  0  0  0  0
    8.5035   -1.5668    1.3869 H   0  0  0  0  0  0
    1.4678    2.1585   -1.4630 H   0  0  0  0  0  0
    3.9594    5.9727   -2.1149 H   0  0  0  0  0  0
    7.4747   -4.4963   -1.4127 H   0  0  0  0  0  0
   10.1399   -4.6968   -0.7537 H   0  0  0  0  0  0
    5.3361   -4.3341   -0.3304 H   0  0  0  0  0  0
    6.7858   -0.3229    0.2853 H   0  0  0  0  0  0
    3.5973    4.1331   -3.5321 H   0  0  0  0  0  0
    2.2216    3.0907   -3.2348 H   0  0  0  0  0  0
    3.0397   -3.5029   -0.3302 H   0  0  0  0  0  0
    4.5150    0.5105    0.2837 H   0  0  0  0  0  0
   -1.9198    3.3373    0.8985 H   0  0  0  0  0  0
    0.6771    6.3132   -0.6795 H   0  0  0  0  0  0
   -1.3034    5.6886    0.6060 H   0  0  0  0  0  0
    2.8463    6.2581   -0.7930 H   0  0  0  0  0  0
  1  2  1  0  0  0
  1  5  2  0  0  0
  1  6  1  0  0  0
  2  3  1  0  0  0
  2  8  1  0  0  0
  3  4  2  0  0  0
  4  5  1  0  0  0
  4  7  1  0  0  0
  5 33  1  0  0  0
  6 12  1  0  0  0
  6 19  2  0  0  0
  7 21  1  0  0  0
  7 22  1  0  0  0
  7 23  1  0  0  0
  8 14  2  0  0  0
  8 30  1  0  0  0
  9 16  1  0  0  0
  9 13  1  0  0  0
  9 18  1  0  0  0
 10 13  2  0  0  0
 10 20  1  0  0  0
 11 15  1  0  0  0
 11 17  2  0  0  0
 11 27  1  0  0  0
 12 24  1  0  0  0
 12 34  1  0  0  0
 13 35  1  0  0  0
 14 15  1  0  0  0
 14 36  1  0  0  0
 15 31  2  0  0  0
 16 26  2  0  0  0
 16 25  1  0  0  0
 17 37  1  0  0  0
 17 49  1  0  0  0
 18 20  2  0  0  0
 18 38  1  0  0  0
 20 39  1  0  0  0
 24 28  1  0  0  0
 24 29  2  0  0  0
 25 28  2  0  0  0
 25 40  1  0  0  0
 26 29  1  0  0  0
 26 41  1  0  0  0
 27 42  1  0  0  0
 27 43  1  0  0  0
 28 44  1  0  0  0
 29 45  1  0  0  0
 30 32  2  0  0  0
 30 46  1  0  0  0
 31 32  1  0  0  0
 31 47  1  0  0  0
 32 48  1  0  0  0
M  CHG  1  17   1
M  END
> <chembl_id>
CHEMBL185707

> <chembl_pref_name>
None

> <s_m_source_file>
sdf/actives_sanitized.sdf

> <i_m_source_file_index>
70

> <i_lp_mmshare_version>
49012

> <i_m_ct_stereo_status>
1

> <i_f3d_flags>
0

> <s_epik_input>
W2NIXTFbY0hdW2NIXWMoL0MoPU4vW0hdKVtOSDJdKVtjSF1jMS1uKG5jKFtjSF0yKUMoRikoRilGKWMyQyg9TylbTkhdYyhbY0hdW2NIXTMpW2NIXVtjSF1jMy1uNFtjSF1uW2NIXVtjSF00

> <s_epik_cmdline>
J2VwaWtfcHl0aG9uJywgJy1waHQnLCAnMC41JywgJy1waCcsICc3LjUnLCAnLW50JywgJy1tYScsICcyMDAnLCAnLWltYWUnLCAnPGluZmlsZS5tYWU+JywgJy1vbWFlJywgJzxvdXRmaWxlLm1hZT4n

> <r_lp_tautomer_probability>
1

> <r_epik_Ionization_Penalty>
  0.0080

> <r_epik_Ionization_Penalty_Charging>
  0.0080

> <r_epik_Ionization_Penalty_Neutral>
  0.0000

> <r_epik_State_Penalty>
 -0.0000

> <r_epik_Charging_Adjusted_Penalty>
0.00798498724723395

> <i_epik_Tot_Q>
1

> <i_epik_Tot_abs_Q>
1

> <s_epik_Chemistry_Notes>
This compound has an imine and may undergo hydrolysis.

> <s_lp_Force_Field>
OPLS3e

> <r_lp_Energy>
39.618914

> <b_lp_Chiralities_Consistent>
1

> <s_lp_Variant>
sdf/actives_sanitized.sdf:70-1

$$$$
sdf/actives_sanitized.sdf:71
                    3D
 Schrodinger Suite 2020-1.
 71 77  0  0  1  0            999 V2000
    5.1651   -0.8007   -6.5368 N   0  0  0  0  0  0
   -0.0779    0.0352    0.7753 C   0  0  0  0  0  0
    6.1443   -0.0139   -7.1129 C   0  0  0  0  0  0
   -0.9062    1.1210    0.3092 C   0  0  0  0  0  0
    1.6867   -0.5324   -0.9637 C   0  0  0  0  0  0
    6.5708   -0.4283   -8.2758 N   0  0  0  0  0  0
    1.4154   -0.1379    0.5061 C   0  0  2  0  0  0
   -0.9288   -0.7814    1.5038 C   0  0  0  0  0  0
    4.5182   -0.5465   -5.3071 C   0  0  0  0  0  0
   -2.1998   -0.2702    1.5078 N   0  0  0  0  0  0
    4.9462   -1.8323   -7.4412 C   0  0  0  0  0  0
    2.7173    0.1109   -1.5538 N   0  0  0  0  0  0
   -0.6593    2.2634   -0.4697 C   0  0  0  0  0  0
    5.2587   -0.0809   -4.2144 C   0  0  0  0  0  0
   -1.4393    4.3529   -1.5822 C   0  0  0  0  0  0
   -1.6959    3.1613   -0.7671 C   0  0  0  0  0  0
    3.2721   -0.1171   -2.8250 C   0  0  0  0  0  0
   -2.2313    0.9004    0.7849 C   0  0  0  0  0  0
    4.6409    0.1371   -2.9832 C   0  0  0  0  0  0
    5.8431   -1.5610   -8.5111 C   0  0  0  0  0  0
    2.1011   -1.1249    1.4955 C   0  0  0  0  0  0
   -2.4177    4.8564   -2.3258 N   0  3  0  0  0  0
    1.0227   -1.4269   -1.4918 O   0  0  0  0  0  0
    5.6176   -2.2305    0.4150 C   0  0  0  0  0  0
    3.6211   -1.1821    1.3557 C   0  0  0  0  0  0
    3.1518   -0.8055   -5.1497 C   0  0  0  0  0  0
    4.2163   -2.2067    0.6168 C   0  0  0  0  0  0
    2.5301   -0.5858   -3.9209 C   0  0  0  0  0  0
   -2.9800    2.8964   -0.2712 C   0  0  0  0  0  0
   -3.2804    1.7780    0.5048 C   0  0  0  0  0  0
    6.4208   -1.2018    0.9958 C   0  0  0  0  0  0
   -0.2327    4.9078   -1.5621 N   0  0  0  0  0  0
    5.7932   -0.1863    1.7582 C   0  0  0  0  0  0
    5.3861    0.5860   -1.9442 F   0  0  0  0  0  0
    4.4112   -0.1848    1.9260 C   0  0  0  0  0  0
    4.1054   -2.9549   -7.4547 C   0  0  0  0  0  0
    5.8927   -2.4181   -9.6200 C   0  0  0  0  0  0
    6.2430   -3.2419   -0.3562 C   0  0  0  0  0  0
    7.8227   -1.2225    0.7882 C   0  0  0  0  0  0
    4.1796   -3.7877   -8.5736 C   0  0  0  0  0  0
    7.6230   -3.2313   -0.5427 C   0  0  0  0  0  0
    5.0488   -3.5280   -9.6326 C   0  0  0  0  0  0
    8.4057   -2.2311    0.0249 C   0  0  0  0  0  0
    6.4855    0.8768   -6.6049 H   0  0  0  0  0  0
    1.8760    0.8363    0.6854 H   0  0  0  0  0  0
   -0.7307   -1.7047    2.0288 H   0  0  0  0  0  0
   -2.9665   -0.7234    1.9844 H   0  0  0  0  0  0
    3.2569    0.7278   -0.9642 H   0  0  0  0  0  0
    0.3355    2.4429   -0.8495 H   0  0  0  0  0  0
    6.3188    0.1057   -4.3087 H   0  0  0  0  0  0
    1.8712   -0.8451    2.5252 H   0  0  0  0  0  0
    1.6935   -2.1313    1.3782 H   0  0  0  0  0  0
   -2.2506    5.6757   -2.8913 H   0  0  0  0  0  0
    2.5564   -1.1581   -5.9789 H   0  0  0  0  0  0
    3.6068   -2.9763    0.1643 H   0  0  0  0  0  0
    1.4703   -0.7746   -3.8415 H   0  0  0  0  0  0
   -3.7822    3.5864   -0.4873 H   0  0  0  0  0  0
   -4.2827    1.6073    0.8703 H   0  0  0  0  0  0
   -0.0457    5.7272   -2.1215 H   0  0  0  0  0  0
    0.4924    4.5091   -0.9840 H   0  0  0  0  0  0
    6.3926    0.5968    2.1997 H   0  0  0  0  0  0
    3.9499    0.6097    2.4945 H   0  0  0  0  0  0
    3.4328   -3.1844   -6.6420 H   0  0  0  0  0  0
    6.5661   -2.2290  -10.4433 H   0  0  0  0  0  0
    5.6420   -4.0211   -0.8029 H   0  0  0  0  0  0
    8.4380   -0.4481    1.2232 H   0  0  0  0  0  0
    3.5470   -4.6622   -8.6190 H   0  0  0  0  0  0
    8.0894   -4.0061   -1.1334 H   0  0  0  0  0  0
    5.0714   -4.2019  -10.4767 H   0  0  0  0  0  0
    9.4748   -2.2364   -0.1288 H   0  0  0  0  0  0
   -3.3248    4.4130   -2.3261 H   0  0  0  0  0  0
  1  3  1  0  0  0
  1  9  1  0  0  0
  1 11  1  0  0  0
  2  7  1  0  0  0
  2  4  1  0  0  0
  2  8  2  0  0  0
  3  6  2  0  0  0
  3 44  1  0  0  0
  4 13  2  0  0  0
  4 18  1  0  0  0
  5 12  1  0  0  0
  5  7  1  0  0  0
  5 23  2  0  0  0
  6 20  1  0  0  0
  7 21  1  0  0  0
  7 45  1  0  0  0
  8 10  1  0  0  0
  8 46  1  0  0  0
  9 14  2  0  0  0
  9 26  1  0  0  0
 10 18  1  0  0  0
 10 47  1  0  0  0
 11 20  2  0  0  0
 11 36  1  0  0  0
 12 17  1  0  0  0
 12 48  1  0  0  0
 13 16  1  0  0  0
 13 49  1  0  0  0
 14 19  1  0  0  0
 14 50  1  0  0  0
 15 16  1  0  0  0
 15 22  2  0  0  0
 15 32  1  0  0  0
 16 29  2  0  0  0
 17 28  1  0  0  0
 17 19  2  0  0  0
 18 30  2  0  0  0
 19 34  1  0  0  0
 20 37  1  0  0  0
 21 25  1  0  0  0
 21 51  1  0  0  0
 21 52  1  0  0  0
 22 53  1  0  0  0
 22 71  1  0  0  0
 24 27  2  0  0  0
 24 38  1  0  0  0
 24 31  1  0  0  0
 25 27  1  0  0  0
 25 35  2  0  0  0
 26 28  2  0  0  0
 26 54  1  0  0  0
 27 55  1  0  0  0
 28 56  1  0  0  0
 29 30  1  0  0  0
 29 57  1  0  0  0
 30 58  1  0  0  0
 31 33  2  0  0  0
 31 39  1  0  0  0
 32 59  1  0  0  0
 32 60  1  0  0  0
 33 35  1  0  0  0
 33 61  1  0  0  0
 35 62  1  0  0  0
 36 40  2  0  0  0
 36 63  1  0  0  0
 37 42  2  0  0  0
 37 64  1  0  0  0
 38 41  2  0  0  0
 38 65  1  0  0  0
 39 43  2  0  0  0
 39 66  1  0  0  0
 40 42  1  0  0  0
 40 67  1  0  0  0
 41 43  1  0  0  0
 41 68  1  0  0  0
 42 69  1  0  0  0
 43 70  1  0  0  0
M  CHG  1  22   1
M  END
> <chembl_id>
CHEMBL186410

> <chembl_pref_name>
None

> <s_m_source_file>
sdf/actives_sanitized.sdf

> <i_m_source_file_index>
71

> <i_lp_mmshare_version>
49012

> <i_m_ct_stereo_status>
1

> <i_f3d_flags>
0

> <s_epik_input>
W2NIXTFbY0hdW2NIXVtjSF1jKGMxMiluW2NIXW4yLWMzW2NIXWMoRiljKFtjSF1bY0hdMylbTkhdQyg9TylbQ0BASF0oYzRbY0hdW25IXWMoYzQ1KVtjSF1bY0hdYyhbY0hdNSkvQyg9Ti9bSF0pW05IMl0pW0NIMl1jKFtjSF02KVtjSF1bY0hdYyhjNjcpW2NIXVtjSF1bY0hdW2NIXTc=

> <s_epik_cmdline>
J2VwaWtfcHl0aG9uJywgJy1waHQnLCAnMC41JywgJy1waCcsICc3LjUnLCAnLW50JywgJy1tYScsICcyMDAnLCAnLWltYWUnLCAnPGluZmlsZS5tYWU+JywgJy1vbWFlJywgJzxvdXRmaWxlLm1hZT4n

> <r_epik_Ionization_Penalty>
  0.0112

> <r_epik_Ionization_Penalty_Charging>
  0.0010

> <r_epik_Ionization_Penalty_Neutral>
  0.0102

> <r_epik_State_Penalty>
  0.0078

> <r_epik_Charging_Adjusted_Penalty>
0.00877873498810205

> <i_epik_Tot_Q>
1

> <i_epik_Tot_abs_Q>
1

> <s_epik_Chemistry_Notes>
This compound has an imine and may undergo hydrolysis.

> <s_lp_Force_Field>
OPLS3e

> <r_lp_Energy>
59.226605

> <b_lp_Chiralities_Consistent>
1

> <s_lp_Variant>
sdf/actives_sanitized.sdf:71-1

$$$$
sdf/actives_sanitized.sdf:72
                    3D
 Schrodinger Suite 2020-1.
 58 62  0  0  1  0            999 V2000
    0.1051   -0.0423   -0.0855 C   0  0  0  0  0  0
   -0.6539    1.1012   -0.3256 N   0  0  0  0  0  0
   -1.9635    0.7882   -0.4224 N   0  0  0  0  0  0
   -2.0589   -0.5213   -0.4133 C   0  0  0  0  0  0
   -0.8041   -1.0889   -0.1928 C   0  0  0  0  0  0
    7.5971   -2.3664    0.4035 N   0  0  0  0  0  0
    1.4939   -0.1189    0.3086 C   0  0  0  0  0  0
    8.1739   -3.2236    1.3210 C   0  0  0  0  0  0
    9.4723   -3.3345    1.2295 N   0  0  0  0  0  0
   -3.4085   -1.1984   -0.5648 C   0  0  0  0  0  0
    8.6543   -1.8772   -0.3533 C   0  0  0  0  0  0
   12.5355   -1.0095   -2.0254 C   0  0  0  0  0  0
    9.8038   -2.5073    0.1932 C   0  0  0  0  0  0
    6.2153   -2.1064    0.2670 C   0  0  0  0  0  0
    2.1312   -1.2086   -0.1690 N   0  0  0  0  0  0
   -0.2943    2.4758   -0.2108 C   0  0  0  0  0  0
    5.4164   -1.9572    1.4080 C   0  0  0  0  0  0
   11.1767   -1.3387   -1.4074 C   0  0  0  0  0  0
    2.6414    4.7169   -1.0833 C   0  0  0  0  0  0
    3.4926   -1.4828    0.0136 C   0  0  0  0  0  0
    4.0586   -1.6587    1.2870 C   0  0  0  0  0  0
   11.0725   -2.2397   -0.3397 C   0  0  0  0  0  0
    0.9413    2.9255   -0.6983 C   0  0  0  0  0  0
    1.3373    4.2695   -0.5864 C   0  0  0  0  0  0
    8.7520   -0.9705   -1.4166 C   0  0  0  0  0  0
    3.2730    5.6952   -0.4458 N   0  3  0  0  0  0
    2.0173    0.7462    1.0141 O   0  0  0  0  0  0
   10.0297   -0.7240   -1.9226 C   0  0  0  0  0  0
    5.6410   -1.9463   -1.0000 C   0  0  0  0  0  0
    4.2842   -1.6497   -1.1253 C   0  0  0  0  0  0
   -3.2744   -2.5087   -0.7715 F   0  0  0  0  0  0
   -4.1493   -1.0364    0.5312 F   0  0  0  0  0  0
   -4.0917   -0.6999   -1.5963 F   0  0  0  0  0  0
   13.5345   -1.6944   -1.4650 F   0  0  0  0  0  0
   12.5171   -1.2944   -3.3282 F   0  0  0  0  0  0
   12.7889    0.2911   -1.8769 F   0  0  0  0  0  0
    3.1595    4.1317   -2.1566 N   0  0  0  0  0  0
    3.3053   -1.5496    2.4070 F   0  0  0  0  0  0
   -1.1654    3.4050    0.3766 C   0  0  0  0  0  0
    0.4433    5.1685    0.0185 C   0  0  0  0  0  0
   -0.7959    4.7422    0.4910 C   0  0  0  0  0  0
   -0.5950   -2.1427   -0.0762 H   0  0  0  0  0  0
    7.5509   -3.7514    2.0287 H   0  0  0  0  0  0
    1.6228   -1.8311   -0.7800 H   0  0  0  0  0  0
    5.8420   -2.0689    2.3949 H   0  0  0  0  0  0
   11.9478   -2.7203    0.0729 H   0  0  0  0  0  0
    1.6028    2.2156   -1.1744 H   0  0  0  0  0  0
    7.8903   -0.4696   -1.8316 H   0  0  0  0  0  0
    4.1738    6.0114   -0.7737 H   0  0  0  0  0  0
   10.1295   -0.0268   -2.7422 H   0  0  0  0  0  0
    6.2328   -2.0701   -1.8949 H   0  0  0  0  0  0
    3.8557   -1.5414   -2.1117 H   0  0  0  0  0  0
    4.0584    4.4282   -2.5072 H   0  0  0  0  0  0
    2.6494    3.3940   -2.6197 H   0  0  0  0  0  0
   -2.1276    3.0984    0.7611 H   0  0  0  0  0  0
    0.6957    6.2147    0.1227 H   0  0  0  0  0  0
   -1.4707    5.4498    0.9501 H   0  0  0  0  0  0
    2.8537    6.1110    0.3732 H   0  0  0  0  0  0
  1  2  1  0  0  0
  1  5  2  0  0  0
  1  7  1  0  0  0
  2  3  1  0  0  0
  2 16  1  0  0  0
  3  4  2  0  0  0
  4  5  1  0  0  0
  4 10  1  0  0  0
  5 42  1  0  0  0
  6 14  1  0  0  0
  6  8  1  0  0  0
  6 11  1  0  0  0
  7 15  1  0  0  0
  7 27  2  0  0  0
  8  9  2  0  0  0
  8 43  1  0  0  0
  9 13  1  0  0  0
 10 31  1  0  0  0
 10 32  1  0  0  0
 10 33  1  0  0  0
 11 13  2  0  0  0
 11 25  1  0  0  0
 12 18  1  0  0  0
 12 34  1  0  0  0
 12 35  1  0  0  0
 12 36  1  0  0  0
 13 22  1  0  0  0
 14 29  2  0  0  0
 14 17  1  0  0  0
 15 20  1  0  0  0
 15 44  1  0  0  0
 16 23  2  0  0  0
 16 39  1  0  0  0
 17 21  2  0  0  0
 17 45  1  0  0  0
 18 28  1  0  0  0
 18 22  2  0  0  0
 19 24  1  0  0  0
 19 26  2  0  0  0
 19 37  1  0  0  0
 20 21  1  0  0  0
 20 30  2  0  0  0
 21 38  1  0  0  0
 22 46  1  0  0  0
 23 24  1  0  0  0
 23 47  1  0  0  0
 24 40  2  0  0  0
 25 28  2  0  0  0
 25 48  1  0  0  0
 26 49  1  0  0  0
 26 58  1  0  0  0
 28 50  1  0  0  0
 29 30  1  0  0  0
 29 51  1  0  0  0
 30 52  1  0  0  0
 37 53  1  0  0  0
 37 54  1  0  0  0
 39 41  2  0  0  0
 39 55  1  0  0  0
 40 41  1  0  0  0
 40 56  1  0  0  0
 41 57  1  0  0  0
M  CHG  1  26   1
M  END
> <chembl_id>
CHEMBL184427

> <chembl_pref_name>
None

> <s_m_source_file>
sdf/actives_sanitized.sdf

> <i_m_source_file_index>
72

> <i_lp_mmshare_version>
49012

> <i_m_ct_stereo_status>
1

> <i_f3d_flags>
0

> <s_epik_input>
W2NIXTFbY0hdW2NIXWMoL0MoPU4vW0hdKVtOSDJdKVtjSF1jMS1uKG5jKFtjSF0yKUMoRikoRilGKWMyQyg9TylbTkhdYyhbY0hdW2NIXTMpYyhGKVtjSF1jMy1uNFtjSF1uYyhjNDUpW2NIXWMoQyhGKShGKUYpW2NIXVtjSF01

> <s_epik_cmdline>
J2VwaWtfcHl0aG9uJywgJy1waHQnLCAnMC41JywgJy1waCcsICc3LjUnLCAnLW50JywgJy1tYScsICcyMDAnLCAnLWltYWUnLCAnPGluZmlsZS5tYWU+JywgJy1vbWFlJywgJzxvdXRmaWxlLm1hZT4n

> <r_lp_tautomer_probability>
1

> <r_epik_Ionization_Penalty>
  0.0027

> <r_epik_Ionization_Penalty_Charging>
  0.0010

> <r_epik_Ionization_Penalty_Neutral>
  0.0017

> <r_epik_State_Penalty>
 -0.0000

> <r_epik_Charging_Adjusted_Penalty>
0.000984797499885888

> <i_epik_Tot_Q>
1

> <i_epik_Tot_abs_Q>
1

> <s_epik_Chemistry_Notes>
This compound has an imine and may undergo hydrolysis.

> <s_lp_Force_Field>
OPLS3e

> <r_lp_Energy>
51.485085

> <b_lp_Chiralities_Consistent>
1

> <s_lp_Variant>
sdf/actives_sanitized.sdf:72-1

$$$$
sdf/actives_sanitized.sdf:73
                    3D
 Schrodinger Suite 2020-1.
 57 61  0  0  1  0            999 V2000
    0.1778   -0.0041   -0.1007 C   0  0  0  0  0  0
   -0.5788    1.1518    0.0758 N   0  0  0  0  0  0
   -1.8899    0.8926   -0.1143 N   0  0  0  0  0  0
   -2.0212   -0.4069   -0.2555 C   0  0  0  0  0  0
   -0.7657   -1.0128   -0.2595 C   0  0  0  0  0  0
    7.5284   -2.7097    0.0739 N   0  0  0  0  0  0
    1.6138   -0.1169   -0.2201 C   0  0  0  0  0  0
    8.3841   -2.8319    1.1526 C   0  0  0  0  0  0
    9.6011   -3.1992    0.8532 N   0  0  0  0  0  0
   -3.3851   -1.0549   -0.4227 C   0  0  0  0  0  0
    8.2956   -3.0395   -1.0376 C   0  0  0  0  0  0
    9.5797   -3.3396   -0.5058 C   0  0  0  0  0  0
    6.1574   -2.3692    0.1414 C   0  0  0  0  0  0
    2.1085   -1.2623    0.2918 N   0  0  0  0  0  0
   -0.1625    2.5127    0.1505 C   0  0  0  0  0  0
    5.2305   -2.9525   -0.7328 C   0  0  0  0  0  0
    2.5838    4.5479    1.7994 C   0  0  0  0  0  0
    3.4576   -1.6232    0.2360 C   0  0  0  0  0  0
    3.8853   -2.5851   -0.6863 C   0  0  0  0  0  0
    0.9602    2.8664    0.9125 C   0  0  0  0  0  0
    1.4029    4.1974    1.0053 C   0  0  0  0  0  0
   10.6242   -3.7209   -1.3601 C   0  0  0  0  0  0
    8.0422   -3.1005   -2.4156 C   0  0  0  0  0  0
    3.3567    5.5501    1.3983 N   0  3  0  0  0  0
    2.2933    0.7629   -0.7535 O   0  0  0  0  0  0
    5.7225   -1.3994    1.0553 C   0  0  0  0  0  0
    4.3776   -1.0332    1.1087 C   0  0  0  0  0  0
   -3.4528   -1.7232   -1.5737 F   0  0  0  0  0  0
   -3.6189   -1.9226    0.5611 F   0  0  0  0  0  0
   -4.3791   -0.1640   -0.4173 F   0  0  0  0  0  0
   10.3659   -3.7911   -2.7292 C   0  0  0  0  0  0
    2.8510    3.8551    2.9002 N   0  0  0  0  0  0
    3.0060   -3.1694   -1.5347 F   0  0  0  0  0  0
    9.1028   -3.4854   -3.2392 C   0  0  0  0  0  0
   11.3873   -4.1689   -3.5993 N   0  0  0  0  0  0
   -0.8699    3.5233   -0.5174 C   0  0  0  0  0  0
    0.6757    5.1803    0.3137 C   0  0  0  0  0  0
   -0.4499    4.8478   -0.4369 C   0  0  0  0  0  0
   -0.5696   -2.0643   -0.4138 H   0  0  0  0  0  0
    8.0198   -2.6427    2.1521 H   0  0  0  0  0  0
    1.4727   -1.9270    0.7079 H   0  0  0  0  0  0
    5.5379   -3.7090   -1.4393 H   0  0  0  0  0  0
    1.4918    2.0919    1.4471 H   0  0  0  0  0  0
   11.6034   -3.9529   -0.9662 H   0  0  0  0  0  0
    7.0800   -2.8571   -2.8402 H   0  0  0  0  0  0
    4.1754    5.8009    1.9330 H   0  0  0  0  0  0
    6.4214   -0.9197    1.7253 H   0  0  0  0  0  0
    4.0563   -0.2872    1.8216 H   0  0  0  0  0  0
    3.6605    4.0868    3.4571 H   0  0  0  0  0  0
    2.2376    3.1036    3.1800 H   0  0  0  0  0  0
    8.9310   -3.5421   -4.3049 H   0  0  0  0  0  0
   11.2093   -4.1970   -4.5929 H   0  0  0  0  0  0
   12.3054   -4.3698   -3.2302 H   0  0  0  0  0  0
   -1.7415    3.2910   -1.1127 H   0  0  0  0  0  0
    0.9695    6.2197    0.3575 H   0  0  0  0  0  0
   -0.9983    5.6185   -0.9587 H   0  0  0  0  0  0
    3.1261    6.0523    0.5533 H   0  0  0  0  0  0
  1  2  1  0  0  0
  1  5  2  0  0  0
  1  7  1  0  0  0
  2  3  1  0  0  0
  2 15  1  0  0  0
  3  4  2  0  0  0
  4  5  1  0  0  0
  4 10  1  0  0  0
  5 39  1  0  0  0
  6 13  1  0  0  0
  6  8  1  0  0  0
  6 11  1  0  0  0
  7 14  1  0  0  0
  7 25  2  0  0  0
  8  9  2  0  0  0
  8 40  1  0  0  0
  9 12  1  0  0  0
 10 28  1  0  0  0
 10 29  1  0  0  0
 10 30  1  0  0  0
 11 12  2  0  0  0
 11 23  1  0  0  0
 12 22  1  0  0  0
 13 26  2  0  0  0
 13 16  1  0  0  0
 14 18  1  0  0  0
 14 41  1  0  0  0
 15 20  2  0  0  0
 15 36  1  0  0  0
 16 19  2  0  0  0
 16 42  1  0  0  0
 17 21  1  0  0  0
 17 24  2  0  0  0
 17 32  1  0  0  0
 18 19  1  0  0  0
 18 27  2  0  0  0
 19 33  1  0  0  0
 20 21  1  0  0  0
 20 43  1  0  0  0
 21 37  2  0  0  0
 22 31  2  0  0  0
 22 44  1  0  0  0
 23 34  2  0  0  0
 23 45  1  0  0  0
 24 46  1  0  0  0
 24 57  1  0  0  0
 26 27  1  0  0  0
 26 47  1  0  0  0
 27 48  1  0  0  0
 31 34  1  0  0  0
 31 35  1  0  0  0
 32 49  1  0  0  0
 32 50  1  0  0  0
 34 51  1  0  0  0
 35 52  1  0  0  0
 35 53  1  0  0  0
 36 38  2  0  0  0
 36 54  1  0  0  0
 37 38  1  0  0  0
 37 55  1  0  0  0
 38 56  1  0  0  0
M  CHG  1  24   1
M  END
> <chembl_id>
CHEMBL363962

> <chembl_pref_name>
None

> <s_m_source_file>
sdf/actives_sanitized.sdf

> <i_m_source_file_index>
73

> <i_lp_mmshare_version>
49012

> <i_m_ct_stereo_status>
1

> <i_f3d_flags>
0

> <s_epik_input>
W2NIXTFbY0hdW2NIXWMoL0MoPU4vW0hdKVtOSDJdKVtjSF1jMS1uKG5jKFtjSF0yKUMoRikoRilGKWMyQyg9TylbTkhdYyhbY0hdW2NIXTMpYyhGKVtjSF1jMy1uNFtjSF1uYyhjNDUpW2NIXWMoW05IMl0pW2NIXVtjSF01

> <s_epik_cmdline>
J2VwaWtfcHl0aG9uJywgJy1waHQnLCAnMC41JywgJy1waCcsICc3LjUnLCAnLW50JywgJy1tYScsICcyMDAnLCAnLWltYWUnLCAnPGluZmlsZS5tYWU+JywgJy1vbWFlJywgJzxvdXRmaWxlLm1hZT4n

> <r_lp_tautomer_probability>
1

> <r_epik_Ionization_Penalty>
  0.0425

> <r_epik_Ionization_Penalty_Charging>
  0.0010

> <r_epik_Ionization_Penalty_Neutral>
  0.0415

> <r_epik_State_Penalty>
  0.0349

> <r_epik_Charging_Adjusted_Penalty>
0.0359223960561677

> <i_epik_Tot_Q>
1

> <i_epik_Tot_abs_Q>
1

> <s_epik_Chemistry_Notes>
This compound has an imine and may undergo hydrolysis.

> <s_lp_Force_Field>
OPLS3e

> <r_lp_Energy>
48.501471

> <b_lp_Chiralities_Consistent>
1

> <s_lp_Variant>
sdf/actives_sanitized.sdf:73-1

$$$$
sdf/actives_sanitized.sdf:74
                    3D
 Schrodinger Suite 2020-1.
 62 65  0  0  1  0            999 V2000
   -2.7216   -0.9675    0.1110 C   0  0  0  0  0  0
   -4.0239   -1.4466    0.1981 C   0  0  0  0  0  0
   -4.5031   -2.0189    1.3721 C   0  0  0  0  0  0
   -1.8464   -1.0429    1.2048 C   0  0  0  0  0  0
   -2.2991   -1.6186    2.4098 C   0  0  0  0  0  0
   -3.6386   -2.1019    2.4724 C   0  0  0  0  0  0
   -4.0098   -2.7731    4.0513 S   0  0  0  0  0  0
   -2.3856   -2.4183    4.6266 C   0  0  0  0  0  0
   -1.6162   -1.8102    3.6458 C   0  0  0  0  0  0
   -2.0044   -2.7179    5.9213 C   0  0  0  0  0  0
   -2.4830   -3.8106    6.5026 N   0  0  0  0  0  0
   -1.1599   -1.9024    6.5402 N   0  3  0  0  0  0
   -0.5349   -0.6011    1.2255 O   0  0  0  0  0  0
    0.0219    0.0831    0.0963 C   0  0  2  0  0  0
    1.5424    0.1646    0.3111 C   0  0  0  0  0  0
   -0.5864    1.4778   -0.0736 C   0  0  0  0  0  0
   -0.9698    2.2318    1.0416 C   0  0  0  0  0  0
   -1.5285    3.4956    0.8708 C   0  0  0  0  0  0
   -1.7005    4.0059   -0.4138 C   0  0  0  0  0  0
   -1.3184    3.2643   -1.5294 C   0  0  0  0  0  0
   -0.7617    1.9994   -1.3592 C   0  0  0  0  0  0
    2.1126   -1.1381    0.2380 O   0  0  0  0  0  0
    3.4249   -1.3338    0.4715 C   0  0  0  0  0  0
    3.7097   -2.6820    0.2815 N   0  0  0  0  0  0
    4.2199   -0.4440    0.7821 O   0  0  0  0  0  0
    4.9461   -3.3398    0.4190 C   0  0  0  0  0  0
    5.9291   -2.8855    1.3150 C   0  0  0  0  0  0
    7.1357   -3.5691    1.4511 C   0  0  0  0  0  0
    7.3737   -4.7180    0.7025 C   0  0  0  0  0  0
    6.4029   -5.1865   -0.1798 C   0  0  0  0  0  0
    5.1843   -4.5131   -0.3266 C   0  0  0  0  0  0
    4.1747   -5.0727   -1.3260 C   0  0  0  0  0  0
    3.3905   -6.2681   -0.7649 N   0  3  0  0  0  0
    2.3755   -6.8580   -1.7538 C   0  0  0  0  0  0
   -2.4043   -0.5330   -0.8245 H   0  0  0  0  0  0
   -4.6742   -1.3727   -0.6615 H   0  0  0  0  0  0
   -5.5173   -2.3874    1.4288 H   0  0  0  0  0  0
   -0.5904   -1.5089    3.8000 H   0  0  0  0  0  0
   -2.2111   -4.0389    7.4475 H   0  0  0  0  0  0
   -3.1219   -4.4073    5.9971 H   0  0  0  0  0  0
   -0.8735   -2.0985    7.4880 H   0  0  0  0  0  0
   -0.1601   -0.5066   -0.8050 H   0  0  0  0  0  0
    1.7610    0.6252    1.2766 H   0  0  0  0  0  0
    1.9937    0.7931   -0.4588 H   0  0  0  0  0  0
   -0.8365    1.8415    2.0401 H   0  0  0  0  0  0
   -1.8263    4.0783    1.7301 H   0  0  0  0  0  0
   -2.1330    4.9866   -0.5461 H   0  0  0  0  0  0
   -1.4531    3.6688   -2.5218 H   0  0  0  0  0  0
   -0.4677    1.4270   -2.2271 H   0  0  0  0  0  0
    2.9529   -3.2461   -0.0750 H   0  0  0  0  0  0
    5.7705   -2.0107    1.9271 H   0  0  0  0  0  0
    7.8846   -3.2097    2.1416 H   0  0  0  0  0  0
    8.3095   -5.2472    0.8083 H   0  0  0  0  0  0
    6.6032   -6.0802   -0.7535 H   0  0  0  0  0  0
    3.4039   -4.3581   -1.6173 H   0  0  0  0  0  0
    4.6621   -5.4426   -2.2299 H   0  0  0  0  0  0
    4.0459   -6.9897   -0.4984 H   0  0  0  0  0  0
    1.8890   -7.6841   -1.2350 H   0  0  0  0  0  0
    2.9335   -7.2032   -2.6250 H   0  0  0  0  0  0
    1.6664   -6.0679   -2.0047 H   0  0  0  0  0  0
   -0.8191   -1.0797    6.0642 H   0  0  0  0  0  0
    2.9035   -5.9744    0.0703 H   0  0  0  0  0  0
  1  4  2  0  0  0
  1  2  1  0  0  0
  1 35  1  0  0  0
  2  3  2  0  0  0
  2 36  1  0  0  0
  3  6  1  0  0  0
  3 37  1  0  0  0
  4 13  1  0  0  0
  4  5  1  0  0  0
  5  9  1  0  0  0
  5  6  2  0  0  0
  6  7  1  0  0  0
  7  8  1  0  0  0
  8  9  2  0  0  0
  8 10  1  0  0  0
  9 38  1  0  0  0
 10 11  1  0  0  0
 10 12  2  0  0  0
 11 39  1  0  0  0
 11 40  1  0  0  0
 12 41  1  0  0  0
 12 61  1  0  0  0
 13 14  1  0  0  0
 14 15  1  0  0  0
 14 16  1  0  0  0
 14 42  1  0  0  0
 15 22  1  0  0  0
 15 43  1  0  0  0
 15 44  1  0  0  0
 16 17  2  0  0  0
 16 21  1  0  0  0
 17 18  1  0  0  0
 17 45  1  0  0  0
 18 19  2  0  0  0
 18 46  1  0  0  0
 19 20  1  0  0  0
 19 47  1  0  0  0
 20 21  2  0  0  0
 20 48  1  0  0  0
 21 49  1  0  0  0
 22 23  1  0  0  0
 23 24  1  0  0  0
 23 25  2  0  0  0
 24 26  1  0  0  0
 24 50  1  0  0  0
 26 27  2  0  0  0
 26 31  1  0  0  0
 27 28  1  0  0  0
 27 51  1  0  0  0
 28 29  2  0  0  0
 28 52  1  0  0  0
 29 30  1  0  0  0
 29 53  1  0  0  0
 30 31  2  0  0  0
 30 54  1  0  0  0
 31 32  1  0  0  0
 32 33  1  0  0  0
 32 55  1  0  0  0
 32 56  1  0  0  0
 33 34  1  0  0  0
 33 57  1  0  0  0
 33 62  1  0  0  0
 34 58  1  0  0  0
 34 59  1  0  0  0
 34 60  1  0  0  0
M  CHG  2  12   1  33   1
M  END
> <chembl_id>
CHEMBL598989

> <chembl_pref_name>
None

> <s_m_source_file>
sdf/actives_sanitized.sdf

> <i_m_source_file_index>
74

> <i_lp_mmshare_version>
49012

> <i_m_ct_stereo_status>
1

> <i_f3d_flags>
0

> <s_epik_input>
W0hdXE49QyhbTkgyXSlcYyhbY0hdMSlzYyhjMTIpW2NIXVtjSF1bY0hdYzJPW0NAQEhdKGMzW2NIXVtjSF1bY0hdW2NIXVtjSF0zKVtDSDJdT0MoPU8pW05IXWM0W2NIXVtjSF1bY0hdW2NIXWM0W0NIMl1bTkhdW0NIM10=

> <s_epik_cmdline>
J2VwaWtfcHl0aG9uJywgJy1waHQnLCAnMC41JywgJy1waCcsICc3LjUnLCAnLW50JywgJy1tYScsICcyMDAnLCAnLWltYWUnLCAnPGluZmlsZS5tYWU+JywgJy1vbWFlJywgJzxvdXRmaWxlLm1hZT4n

> <r_lp_tautomer_probability>
1

> <r_epik_Ionization_Penalty>
  0.0640

> <r_epik_Ionization_Penalty_Charging>
  0.0640

> <r_epik_Ionization_Penalty_Neutral>
  0.0000

> <r_epik_State_Penalty>
 -0.0000

> <r_epik_Charging_Adjusted_Penalty>
0.0639891669239931

> <i_epik_Tot_Q>
2

> <i_epik_Tot_abs_Q>
2

> <s_epik_Chemistry_Notes>
This compound has an ester and may undergo hydrolysis at high or low pH. This compound has an imine and may undergo hydrolysis.

> <s_lp_Force_Field>
OPLS3e

> <r_lp_Energy>
46.825999

> <b_lp_Chiralities_Consistent>
1

> <s_lp_Variant>
sdf/actives_sanitized.sdf:74-1

$$$$
sdf/actives_sanitized.sdf:75
                    3D
 Schrodinger Suite 2020-1.
 56 59  0  0  1  0            999 V2000
    0.1828    2.6106   -0.1454 C   0  0  0  0  0  0
   -0.4775    3.8240   -0.3026 C   0  0  0  0  0  0
   -1.8661    3.8853   -0.3639 C   0  0  0  0  0  0
   -0.5284    1.4058   -0.0415 C   0  0  0  0  0  0
   -1.9370    1.4316   -0.0992 C   0  0  0  0  0  0
   -2.5893    2.6887   -0.2618 C   0  0  0  0  0  0
   -4.3349    2.5084   -0.3125 S   0  0  0  0  0  0
   -4.1994    0.7661   -0.1103 C   0  0  0  0  0  0
   -2.8757    0.3625   -0.0197 C   0  0  0  0  0  0
   -5.3220   -0.0400   -0.0773 C   0  0  0  0  0  0
   -6.4320    0.4160    0.4894 N   0  0  0  0  0  0
   -5.2490   -1.2536   -0.6092 N   0  3  0  0  0  0
    0.0259    0.1467    0.1108 O   0  0  0  0  0  0
    1.4457   -0.0165    0.2126 C   0  0  2  0  0  0
    1.7586   -1.5076    0.0042 C   0  0  0  0  0  0
    1.9696    0.4775    1.5631 C   0  0  0  0  0  0
    1.2023    0.3289    2.7244 C   0  0  0  0  0  0
    1.6876    0.7906    3.9449 C   0  0  0  0  0  0
    2.9391    1.3993    4.0040 C   0  0  0  0  0  0
    3.7105    1.5497    2.8538 C   0  0  0  0  0  0
    3.2257    1.0878    1.6329 C   0  0  0  0  0  0
    1.4003   -1.8898   -1.3192 O   0  0  0  0  0  0
    1.5694   -3.1550   -1.7467 C   0  0  0  0  0  0
    1.1208   -3.2436   -3.0554 N   0  0  0  0  0  0
    2.0461   -4.0703   -1.0713 O   0  0  0  0  0  0
    1.1595   -4.4772   -3.8384 C   0  0  0  0  0  0
    2.0004   -4.3272   -5.0964 C   0  0  0  0  0  0
    3.3405   -4.7245   -5.0900 C   0  0  0  0  0  0
    4.1027   -4.6170   -6.2505 C   0  0  0  0  0  0
    3.5193   -4.1246   -7.4161 C   0  0  0  0  0  0
    2.1789   -3.7441   -7.4339 C   0  0  0  0  0  0
    1.4162   -3.8515   -6.2739 C   0  0  0  0  0  0
    1.2612    2.6243   -0.1047 H   0  0  0  0  0  0
    0.0988    4.7346   -0.3796 H   0  0  0  0  0  0
   -2.3686    4.8340   -0.4873 H   0  0  0  0  0  0
   -2.5784   -0.6685    0.1051 H   0  0  0  0  0  0
   -7.2581   -0.1633    0.5194 H   0  0  0  0  0  0
   -6.4441    1.3436    0.8880 H   0  0  0  0  0  0
   -6.0553   -1.8606   -0.5903 H   0  0  0  0  0  0
    1.9289    0.5404   -0.5934 H   0  0  0  0  0  0
    1.2168   -2.1132    0.7329 H   0  0  0  0  0  0
    2.8241   -1.6887    0.1565 H   0  0  0  0  0  0
    0.2315   -0.1433    2.6839 H   0  0  0  0  0  0
    1.0962    0.6770    4.8416 H   0  0  0  0  0  0
    3.3154    1.7574    4.9510 H   0  0  0  0  0  0
    4.6800    2.0228    2.9086 H   0  0  0  0  0  0
    3.8271    1.2062    0.7431 H   0  0  0  0  0  0
    0.7475   -2.4135   -3.4920 H   0  0  0  0  0  0
    1.5263   -5.3285   -3.2602 H   0  0  0  0  0  0
    0.1362   -4.7407   -4.1094 H   0  0  0  0  0  0
    3.7923   -5.1100   -4.1873 H   0  0  0  0  0  0
    5.1406   -4.9160   -6.2476 H   0  0  0  0  0  0
    4.1109   -4.0414   -8.3159 H   0  0  0  0  0  0
    1.7331   -3.3695   -8.3437 H   0  0  0  0  0  0
    0.3759   -3.5605   -6.2900 H   0  0  0  0  0  0
   -4.3877   -1.5620   -1.0360 H   0  0  0  0  0  0
  1  4  2  0  0  0
  1  2  1  0  0  0
  1 33  1  0  0  0
  2  3  2  0  0  0
  2 34  1  0  0  0
  3  6  1  0  0  0
  3 35  1  0  0  0
  4  5  1  0  0  0
  4 13  1  0  0  0
  5  9  1  0  0  0
  5  6  2  0  0  0
  6  7  1  0  0  0
  7  8  1  0  0  0
  8  9  2  0  0  0
  8 10  1  0  0  0
  9 36  1  0  0  0
 10 11  1  0  0  0
 10 12  2  0  0  0
 11 37  1  0  0  0
 11 38  1  0  0  0
 12 39  1  0  0  0
 12 56  1  0  0  0
 13 14  1  0  0  0
 14 16  1  0  0  0
 14 15  1  0  0  0
 14 40  1  0  0  0
 15 22  1  0  0  0
 15 41  1  0  0  0
 15 42  1  0  0  0
 16 17  2  0  0  0
 16 21  1  0  0  0
 17 18  1  0  0  0
 17 43  1  0  0  0
 18 19  2  0  0  0
 18 44  1  0  0  0
 19 20  1  0  0  0
 19 45  1  0  0  0
 20 21  2  0  0  0
 20 46  1  0  0  0
 21 47  1  0  0  0
 22 23  1  0  0  0
 23 24  1  0  0  0
 23 25  2  0  0  0
 24 26  1  0  0  0
 24 48  1  0  0  0
 26 27  1  0  0  0
 26 49  1  0  0  0
 26 50  1  0  0  0
 27 28  2  0  0  0
 27 32  1  0  0  0
 28 29  1  0  0  0
 28 51  1  0  0  0
 29 30  2  0  0  0
 29 52  1  0  0  0
 30 31  1  0  0  0
 30 53  1  0  0  0
 31 32  2  0  0  0
 31 54  1  0  0  0
 32 55  1  0  0  0
M  CHG  1  12   1
M  END
> <chembl_id>
CHEMBL605842

> <chembl_pref_name>
None

> <s_m_source_file>
sdf/actives_sanitized.sdf

> <i_m_source_file_index>
75

> <i_lp_mmshare_version>
49012

> <i_m_ct_stereo_status>
1

> <i_f3d_flags>
0

> <s_epik_input>
W0hdXE49QyhbTkgyXSlcYyhbY0hdMSlzYyhjMTIpW2NIXVtjSF1bY0hdYzJPW0NAQEhdKGMzW2NIXVtjSF1bY0hdW2NIXVtjSF0zKVtDSDJdT0MoPU8pW05IXVtDSDJdYzRbY0hdW2NIXVtjSF1bY0hdW2NIXTQ=

> <s_epik_cmdline>
J2VwaWtfcHl0aG9uJywgJy1waHQnLCAnMC41JywgJy1waCcsICc3LjUnLCAnLW50JywgJy1tYScsICcyMDAnLCAnLWltYWUnLCAnPGluZmlsZS5tYWU+JywgJy1vbWFlJywgJzxvdXRmaWxlLm1hZT4n

> <r_lp_tautomer_probability>
1

> <r_epik_Ionization_Penalty>
  0.0095

> <r_epik_Ionization_Penalty_Charging>
  0.0095

> <r_epik_Ionization_Penalty_Neutral>
  0.0000

> <r_epik_State_Penalty>
 -0.0000

> <r_epik_Charging_Adjusted_Penalty>
0.00945881282357717

> <i_epik_Tot_Q>
1

> <i_epik_Tot_abs_Q>
1

> <s_epik_Chemistry_Notes>
This compound has an ester and may undergo hydrolysis at high or low pH. This compound has an imine and may undergo hydrolysis.

> <s_lp_Force_Field>
OPLS3e

> <r_lp_Energy>
33.622808

> <b_lp_Chiralities_Consistent>
1

> <s_lp_Variant>
sdf/actives_sanitized.sdf:75-1

$$$$
sdf/actives_sanitized.sdf:76
                    3D
 Schrodinger Suite 2020-1.
 60 63  0  0  1  0            999 V2000
   -2.7678   -0.7142   -0.0221 C   0  0  0  0  0  0
   -4.0808   -1.1698    0.0124 C   0  0  0  0  0  0
   -4.5711   -1.8693    1.1104 C   0  0  0  0  0  0
   -1.8923   -0.9413    1.0502 C   0  0  0  0  0  0
   -2.3565   -1.6466    2.1795 C   0  0  0  0  0  0
   -3.7067   -2.1042    2.1888 C   0  0  0  0  0  0
   -4.0906   -2.9535    3.6763 S   0  0  0  0  0  0
   -2.4595   -2.7031    4.2852 C   0  0  0  0  0  0
   -1.6772   -1.9993    3.3816 C   0  0  0  0  0  0
   -2.0852   -3.1609    5.5341 C   0  0  0  0  0  0
   -2.5776   -4.3105    5.9777 N   0  0  0  0  0  0
   -1.2353   -2.4344    6.2487 N   0  3  0  0  0  0
   -0.5705   -0.5361    1.1175 O   0  0  0  0  0  0
    0.0074    0.2402    0.0609 C   0  0  2  0  0  0
    1.5310    0.2467    0.2672 C   0  0  0  0  0  0
   -0.5526    1.6650    0.0389 C   0  0  0  0  0  0
   -0.9004    2.3144    1.2291 C   0  0  0  0  0  0
   -1.4178    3.6064    1.1932 C   0  0  0  0  0  0
   -1.5853    4.2487   -0.0314 C   0  0  0  0  0  0
   -1.2387    3.6114   -1.2205 C   0  0  0  0  0  0
   -0.7217    2.3192   -1.1853 C   0  0  0  0  0  0
    2.0515   -1.0659    0.0836 O   0  0  0  0  0  0
    3.3744   -1.3053    0.1784 C   0  0  0  0  0  0
    3.5971   -2.6566   -0.0614 N   0  0  0  0  0  0
    4.2222   -0.4465    0.4381 O   0  0  0  0  0  0
    4.8585   -3.2260   -0.0532 C   0  0  0  0  0  0
    5.0729   -4.5612    0.1977 N   0  0  0  0  0  0
    6.3738   -4.8879    0.1839 N   0  0  0  0  0  0
    7.0205   -3.7815   -0.1185 C   0  0  0  0  0  0
    6.1298   -2.7111   -0.2707 C   0  0  0  0  0  0
    4.1022   -5.5911    0.5439 C   0  0  0  0  0  0
    8.5292   -3.7790   -0.2363 C   0  0  0  0  0  0
    8.8855   -3.5470   -1.5922 O   0  0  0  0  0  0
   10.2872   -3.5029   -1.8121 C   0  0  0  0  0  0
   -2.4427   -0.1774   -0.9000 H   0  0  0  0  0  0
   -4.7308   -0.9763   -0.8285 H   0  0  0  0  0  0
   -5.5933   -2.2189    1.1268 H   0  0  0  0  0  0
   -0.6449   -1.7412    3.5677 H   0  0  0  0  0  0
   -2.3198   -4.6504    6.8926 H   0  0  0  0  0  0
   -3.2155   -4.8370    5.3987 H   0  0  0  0  0  0
   -0.9491   -2.7498    7.1640 H   0  0  0  0  0  0
   -0.1987   -0.2477   -0.8946 H   0  0  0  0  0  0
    1.7766    0.6147    1.2650 H   0  0  0  0  0  0
    1.9975    0.9219   -0.4527 H   0  0  0  0  0  0
   -0.7718    1.8205    2.1813 H   0  0  0  0  0  0
   -1.6881    4.1083    2.1107 H   0  0  0  0  0  0
   -1.9870    5.2510   -0.0592 H   0  0  0  0  0  0
   -1.3708    4.1173   -2.1657 H   0  0  0  0  0  0
   -0.4550    1.8284   -2.1101 H   0  0  0  0  0  0
    2.7960   -3.2517   -0.2138 H   0  0  0  0  0  0
    6.3887   -1.6901   -0.5101 H   0  0  0  0  0  0
    3.1120   -5.3140    0.1812 H   0  0  0  0  0  0
    4.0706   -5.7035    1.6281 H   0  0  0  0  0  0
    4.3861   -6.5416    0.0891 H   0  0  0  0  0  0
    8.9563   -3.0106    0.4107 H   0  0  0  0  0  0
    8.9538   -4.7307    0.0915 H   0  0  0  0  0  0
   10.4835   -3.3264   -2.8697 H   0  0  0  0  0  0
   10.7647   -4.4447   -1.5368 H   0  0  0  0  0  0
   10.7538   -2.6950   -1.2460 H   0  0  0  0  0  0
   -0.8892   -1.5612    5.8785 H   0  0  0  0  0  0
  1  4  2  0  0  0
  1  2  1  0  0  0
  1 35  1  0  0  0
  2  3  2  0  0  0
  2 36  1  0  0  0
  3  6  1  0  0  0
  3 37  1  0  0  0
  4 13  1  0  0  0
  4  5  1  0  0  0
  5  9  1  0  0  0
  5  6  2  0  0  0
  6  7  1  0  0  0
  7  8  1  0  0  0
  8  9  2  0  0  0
  8 10  1  0  0  0
  9 38  1  0  0  0
 10 11  1  0  0  0
 10 12  2  0  0  0
 11 39  1  0  0  0
 11 40  1  0  0  0
 12 41  1  0  0  0
 12 60  1  0  0  0
 13 14  1  0  0  0
 14 15  1  0  0  0
 14 16  1  0  0  0
 14 42  1  0  0  0
 15 22  1  0  0  0
 15 43  1  0  0  0
 15 44  1  0  0  0
 16 17  2  0  0  0
 16 21  1  0  0  0
 17 18  1  0  0  0
 17 45  1  0  0  0
 18 19  2  0  0  0
 18 46  1  0  0  0
 19 20  1  0  0  0
 19 47  1  0  0  0
 20 21  2  0  0  0
 20 48  1  0  0  0
 21 49  1  0  0  0
 22 23  1  0  0  0
 23 24  1  0  0  0
 23 25  2  0  0  0
 24 26  1  0  0  0
 24 50  1  0  0  0
 26 27  1  0  0  0
 26 30  2  0  0  0
 27 28  1  0  0  0
 27 31  1  0  0  0
 28 29  2  0  0  0
 29 30  1  0  0  0
 29 32  1  0  0  0
 30 51  1  0  0  0
 31 52  1  0  0  0
 31 53  1  0  0  0
 31 54  1  0  0  0
 32 33  1  0  0  0
 32 55  1  0  0  0
 32 56  1  0  0  0
 33 34  1  0  0  0
 34 57  1  0  0  0
 34 58  1  0  0  0
 34 59  1  0  0  0
M  CHG  1  12   1
M  END
> <chembl_id>
CHEMBL601870

> <chembl_pref_name>
None

> <s_m_source_file>
sdf/actives_sanitized.sdf

> <i_m_source_file_index>
76

> <i_lp_mmshare_version>
49012

> <i_m_ct_stereo_status>
1

> <i_f3d_flags>
0

> <s_epik_input>
W0hdXE49QyhbTkgyXSlcYyhbY0hdMSlzYyhjMTIpW2NIXVtjSF1bY0hdYzJPW0NAQEhdKGMzW2NIXVtjSF1bY0hdW2NIXVtjSF0zKVtDSDJdT0MoPU8pW05IXWM0bihbQ0gzXSluYyhbY0hdNClbQ0gyXU9bQ0gzXQ==

> <s_epik_cmdline>
J2VwaWtfcHl0aG9uJywgJy1waHQnLCAnMC41JywgJy1waCcsICc3LjUnLCAnLW50JywgJy1tYScsICcyMDAnLCAnLWltYWUnLCAnPGluZmlsZS5tYWU+JywgJy1vbWFlJywgJzxvdXRmaWxlLm1hZT4n

> <r_lp_tautomer_probability>
1

> <r_epik_Ionization_Penalty>
  0.0095

> <r_epik_Ionization_Penalty_Charging>
  0.0095

> <r_epik_Ionization_Penalty_Neutral>
  0.0000

> <r_epik_State_Penalty>
 -0.0000

> <r_epik_Charging_Adjusted_Penalty>
0.00945881282357717

> <i_epik_Tot_Q>
1

> <i_epik_Tot_abs_Q>
1

> <s_epik_Chemistry_Notes>
This compound has an ester and may undergo hydrolysis at high or low pH. This compound has an imine and may undergo hydrolysis.

> <s_lp_Force_Field>
OPLS3e

> <r_lp_Energy>
31.178969

> <b_lp_Chiralities_Consistent>
1

> <s_lp_Variant>
sdf/actives_sanitized.sdf:76-1

$$$$
sdf/actives_sanitized.sdf:77
                    3D
 Schrodinger Suite 2020-1.
 46 48  0  0  1  0            999 V2000
    0.1586    2.6313   -0.0985 C   0  0  0  0  0  0
   -0.5147    3.8447   -0.1856 C   0  0  0  0  0  0
   -1.9048    3.8965   -0.2110 C   0  0  0  0  0  0
   -0.5410    1.4175   -0.0298 C   0  0  0  0  0  0
   -1.9504    1.4328   -0.0576 C   0  0  0  0  0  0
   -2.6161    2.6901   -0.1486 C   0  0  0  0  0  0
   -4.3609    2.4962   -0.1676 S   0  0  0  0  0  0
   -4.2059    0.7469   -0.0655 C   0  0  0  0  0  0
   -2.8779    0.3524   -0.0071 C   0  0  0  0  0  0
   -5.3206   -0.0692   -0.0311 C   0  0  0  0  0  0
   -6.3882    0.2621   -0.7457 N   0  0  0  0  0  0
   -5.2809   -1.1684    0.7110 N   0  3  0  0  0  0
    0.0253    0.1580    0.0589 O   0  0  0  0  0  0
    1.4466    0.0014    0.1466 C   0  0  2  0  0  0
    1.7592   -1.4861   -0.0860 C   0  0  0  0  0  0
    1.9800    0.4712    1.5023 C   0  0  0  0  0  0
    1.2277    0.2862    2.6681 C   0  0  0  0  0  0
    1.7213    0.7253    3.8935 C   0  0  0  0  0  0
    2.9661    1.3476    3.9530 C   0  0  0  0  0  0
    3.7227    1.5335    2.7982 C   0  0  0  0  0  0
    3.2294    1.0947    1.5723 C   0  0  0  0  0  0
    1.4133   -1.8525   -1.4175 O   0  0  0  0  0  0
    1.4945   -3.1340   -1.8247 C   0  0  0  0  0  0
    1.1199   -3.2063   -3.1564 N   0  0  0  0  0  0
    1.8472   -4.0793   -1.1151 O   0  0  0  0  0  0
    1.1049   -4.4651   -3.8907 C   0  0  0  0  0  0
    1.2375    2.6517   -0.0830 H   0  0  0  0  0  0
    0.0526    4.7629   -0.2342 H   0  0  0  0  0  0
   -2.4176    4.8451   -0.2783 H   0  0  0  0  0  0
   -2.5696   -0.6804    0.0626 H   0  0  0  0  0  0
   -7.2098   -0.3241   -0.7269 H   0  0  0  0  0  0
   -6.3733    1.1032   -1.3039 H   0  0  0  0  0  0
   -6.0830   -1.7799    0.7487 H   0  0  0  0  0  0
    1.9194    0.5749   -0.6539 H   0  0  0  0  0  0
    2.8230   -1.6735    0.0699 H   0  0  0  0  0  0
    1.2118   -2.0992    0.6324 H   0  0  0  0  0  0
    0.2623   -0.1971    2.6271 H   0  0  0  0  0  0
    1.1418    0.5836    4.7940 H   0  0  0  0  0  0
    3.3485    1.6883    4.9039 H   0  0  0  0  0  0
    4.6877    2.0156    2.8534 H   0  0  0  0  0  0
    3.8187    1.2412    0.6787 H   0  0  0  0  0  0
    0.8506   -2.3589   -3.6343 H   0  0  0  0  0  0
    0.7857   -4.2890   -4.9179 H   0  0  0  0  0  0
    0.4117   -5.1766   -3.4390 H   0  0  0  0  0  0
    2.0979   -4.9165   -3.9186 H   0  0  0  0  0  0
   -4.4496   -1.3834    1.2421 H   0  0  0  0  0  0
  1  2  2  0  0  0
  1  4  1  0  0  0
  1 27  1  0  0  0
  2  3  1  0  0  0
  2 28  1  0  0  0
  3  6  2  0  0  0
  3 29  1  0  0  0
  4 13  1  0  0  0
  4  5  2  0  0  0
  5  9  1  0  0  0
  5  6  1  0  0  0
  6  7  1  0  0  0
  7  8  1  0  0  0
  8  9  2  0  0  0
  8 10  1  0  0  0
  9 30  1  0  0  0
 10 11  1  0  0  0
 10 12  2  0  0  0
 11 31  1  0  0  0
 11 32  1  0  0  0
 12 33  1  0  0  0
 12 46  1  0  0  0
 13 14  1  0  0  0
 14 15  1  0  0  0
 14 16  1  0  0  0
 14 34  1  0  0  0
 15 22  1  0  0  0
 15 35  1  0  0  0
 15 36  1  0  0  0
 16 17  2  0  0  0
 16 21  1  0  0  0
 17 18  1  0  0  0
 17 37  1  0  0  0
 18 19  2  0  0  0
 18 38  1  0  0  0
 19 20  1  0  0  0
 19 39  1  0  0  0
 20 21  2  0  0  0
 20 40  1  0  0  0
 21 41  1  0  0  0
 22 23  1  0  0  0
 23 24  1  0  0  0
 23 25  2  0  0  0
 24 26  1  0  0  0
 24 42  1  0  0  0
 26 43  1  0  0  0
 26 44  1  0  0  0
 26 45  1  0  0  0
M  CHG  1  12   1
M  END
> <chembl_id>
CHEMBL599415

> <chembl_pref_name>
None

> <s_m_source_file>
sdf/actives_sanitized.sdf

> <i_m_source_file_index>
77

> <i_lp_mmshare_version>
49012

> <i_m_ct_stereo_status>
1

> <i_f3d_flags>
0

> <s_epik_input>
W0hdXE49QyhbTkgyXSlcYyhbY0hdMSlzYyhjMTIpW2NIXVtjSF1bY0hdYzJPW0NASF0oW0NIMl1PQyg9TylbTkhdW0NIM10pYzNbY0hdW2NIXVtjSF1bY0hdW2NIXTM=

> <s_epik_cmdline>
J2VwaWtfcHl0aG9uJywgJy1waHQnLCAnMC41JywgJy1waCcsICc3LjUnLCAnLW50JywgJy1tYScsICcyMDAnLCAnLWltYWUnLCAnPGluZmlsZS5tYWU+JywgJy1vbWFlJywgJzxvdXRmaWxlLm1hZT4n

> <r_lp_tautomer_probability>
1

> <r_epik_Ionization_Penalty>
  0.0095

> <r_epik_Ionization_Penalty_Charging>
  0.0095

> <r_epik_Ionization_Penalty_Neutral>
  0.0000

> <r_epik_State_Penalty>
 -0.0000

> <r_epik_Charging_Adjusted_Penalty>
0.00945881282357717

> <i_epik_Tot_Q>
1

> <i_epik_Tot_abs_Q>
1

> <s_epik_Chemistry_Notes>
This compound has an ester and may undergo hydrolysis at high or low pH. This compound has an imine and may undergo hydrolysis.

> <s_lp_Force_Field>
OPLS3e

> <r_lp_Energy>
24.065428

> <b_lp_Chiralities_Consistent>
1

> <s_lp_Variant>
sdf/actives_sanitized.sdf:77-1

$$$$
sdf/actives_sanitized.sdf:78
                    3D
 Schrodinger Suite 2020-1.
 65 68  0  0  1  0            999 V2000
   -0.7799    4.1822    0.0186 C   0  0  0  0  0  0
   -0.7840    5.5721   -0.0154 C   0  0  0  0  0  0
   -0.1626    6.2687   -1.0468 C   0  0  0  0  0  0
   -0.1515    3.4335   -0.9875 C   0  0  0  0  0  0
    0.4912    4.1077   -2.0465 C   0  0  0  0  0  0
    0.4724    5.5333   -2.0572 C   0  0  0  0  0  0
    1.3206    6.1802   -3.4512 S   0  0  0  0  0  0
    1.6923    4.5596   -4.0255 C   0  0  0  0  0  0
    1.1934    3.5866   -3.1720 C   0  0  0  0  0  0
    2.4202    4.3618   -5.1841 C   0  0  0  0  0  0
    2.2582    5.1966   -6.2030 N   0  0  0  0  0  0
    3.2547    3.3318   -5.2419 N   0  3  0  0  0  0
   -0.0882    2.0520   -1.0492 O   0  0  0  0  0  0
   -0.7780    1.2469   -0.0848 C   0  0  2  0  0  0
   -0.2852   -0.2005   -0.2489 C   0  0  0  0  0  0
   -2.2960    1.3311   -0.2653 C   0  0  0  0  0  0
   -2.8576    1.4419   -1.5425 C   0  0  0  0  0  0
   -4.2394    1.5223   -1.6922 C   0  0  0  0  0  0
   -5.0585    1.4903   -0.5658 C   0  0  0  0  0  0
   -4.5083    1.3779    0.7091 C   0  0  0  0  0  0
   -3.1264    1.2977    0.8592 C   0  0  0  0  0  0
    1.0796   -0.3015    0.1434 O   0  0  0  0  0  0
    1.7452   -1.4681    0.0304 C   0  0  0  0  0  0
    3.0368   -1.2906    0.5133 N   0  0  0  0  0  0
    1.2595   -2.5097   -0.4208 O   0  0  0  0  0  0
    3.9558   -2.3220    0.5604 C   0  0  0  0  0  0
    4.3522   -3.1878   -0.4614 C   0  0  0  0  0  0
    5.2877   -4.0014    0.1355 N   0  0  0  0  0  0
    5.5379   -3.6711    1.4085 N   0  0  0  0  0  0
    4.7485   -2.6553    1.6728 C   0  0  0  0  0  0
    3.9540   -3.3255   -1.9179 C   0  0  0  0  0  0
    4.7841   -2.0275    3.0492 C   0  0  0  0  0  0
    6.0600   -5.0853   -0.4704 C   0  0  0  0  0  0
    7.3430   -4.6175   -1.1742 C   0  0  0  0  0  0
    8.0252   -5.6554   -1.6977 O   0  0  0  0  0  0
    7.6747   -3.4302   -1.2373 O   0  0  0  0  0  0
    9.2418   -5.4399   -2.3982 C   0  0  0  0  0  0
   -1.2773    3.6956    0.8436 H   0  0  0  0  0  0
   -1.2783    6.1197    0.7739 H   0  0  0  0  0  0
   -0.1717    7.3492   -1.0631 H   0  0  0  0  0  0
    1.3176    2.5276   -3.3443 H   0  0  0  0  0  0
    2.7845    5.0628   -7.0539 H   0  0  0  0  0  0
    1.6081    5.9647   -6.1203 H   0  0  0  0  0  0
    3.7986    3.1692   -6.0765 H   0  0  0  0  0  0
   -0.5086    1.5831    0.9191 H   0  0  0  0  0  0
   -0.4090   -0.5239   -1.2842 H   0  0  0  0  0  0
   -0.8825   -0.8689    0.3740 H   0  0  0  0  0  0
   -2.2262    1.4649   -2.4190 H   0  0  0  0  0  0
   -4.6741    1.6083   -2.6772 H   0  0  0  0  0  0
   -6.1306    1.5522   -0.6821 H   0  0  0  0  0  0
   -5.1505    1.3523    1.5772 H   0  0  0  0  0  0
   -2.7037    1.2099    1.8496 H   0  0  0  0  0  0
    3.2643   -0.4116    0.9545 H   0  0  0  0  0  0
    3.3594   -2.4804   -2.2639 H   0  0  0  0  0  0
    3.3640   -4.2262   -2.0875 H   0  0  0  0  0  0
    4.8237   -3.3804   -2.5728 H   0  0  0  0  0  0
    4.0553   -1.2238    3.1554 H   0  0  0  0  0  0
    5.7622   -1.5999    3.2708 H   0  0  0  0  0  0
    4.5665   -2.7561    3.8306 H   0  0  0  0  0  0
    6.3221   -5.7963    0.3145 H   0  0  0  0  0  0
    5.4134   -5.6114   -1.1730 H   0  0  0  0  0  0
    9.6470   -6.3934   -2.7368 H   0  0  0  0  0  0
    9.9850   -4.9635   -1.7570 H   0  0  0  0  0  0
    9.0830   -4.8086   -3.2737 H   0  0  0  0  0  0
    3.3503    2.7207   -4.4439 H   0  0  0  0  0  0
  1  4  2  0  0  0
  1  2  1  0  0  0
  1 38  1  0  0  0
  2  3  2  0  0  0
  2 39  1  0  0  0
  3  6  1  0  0  0
  3 40  1  0  0  0
  4 13  1  0  0  0
  4  5  1  0  0  0
  5  9  1  0  0  0
  5  6  2  0  0  0
  6  7  1  0  0  0
  7  8  1  0  0  0
  8  9  2  0  0  0
  8 10  1  0  0  0
  9 41  1  0  0  0
 10 11  1  0  0  0
 10 12  2  0  0  0
 11 42  1  0  0  0
 11 43  1  0  0  0
 12 44  1  0  0  0
 12 65  1  0  0  0
 13 14  1  0  0  0
 14 15  1  0  0  0
 14 16  1  0  0  0
 14 45  1  0  0  0
 15 22  1  0  0  0
 15 46  1  0  0  0
 15 47  1  0  0  0
 16 21  2  0  0  0
 16 17  1  0  0  0
 17 18  2  0  0  0
 17 48  1  0  0  0
 18 19  1  0  0  0
 18 49  1  0  0  0
 19 20  2  0  0  0
 19 50  1  0  0  0
 20 21  1  0  0  0
 20 51  1  0  0  0
 21 52  1  0  0  0
 22 23  1  0  0  0
 23 24  1  0  0  0
 23 25  2  0  0  0
 24 26  1  0  0  0
 24 53  1  0  0  0
 26 27  2  0  0  0
 26 30  1  0  0  0
 27 28  1  0  0  0
 27 31  1  0  0  0
 28 29  1  0  0  0
 28 33  1  0  0  0
 29 30  2  0  0  0
 30 32  1  0  0  0
 31 54  1  0  0  0
 31 55  1  0  0  0
 31 56  1  0  0  0
 32 57  1  0  0  0
 32 58  1  0  0  0
 32 59  1  0  0  0
 33 34  1  0  0  0
 33 60  1  0  0  0
 33 61  1  0  0  0
 34 35  1  0  0  0
 34 36  2  0  0  0
 35 37  1  0  0  0
 37 62  1  0  0  0
 37 63  1  0  0  0
 37 64  1  0  0  0
M  CHG  1  12   1
M  END
> <chembl_id>
CHEMBL601231

> <chembl_pref_name>
None

> <s_m_source_file>
sdf/actives_sanitized.sdf

> <i_m_source_file_index>
78

> <i_lp_mmshare_version>
49012

> <i_m_ct_stereo_status>
1

> <i_f3d_flags>
0

> <s_epik_input>
W0hdXE49QyhbTkgyXSlcYyhbY0hdMSlzYyhjMTIpW2NIXVtjSF1bY0hdYzJPW0NAQEhdKGMzW2NIXVtjSF1bY0hdW2NIXVtjSF0zKVtDSDJdT0MoPU8pW05IXWM0YyhbQ0gzXSluKG5jNFtDSDNdKVtDSDJdQyg9TylPW0NIM10=

> <s_epik_cmdline>
J2VwaWtfcHl0aG9uJywgJy1waHQnLCAnMC41JywgJy1waCcsICc3LjUnLCAnLW50JywgJy1tYScsICcyMDAnLCAnLWltYWUnLCAnPGluZmlsZS5tYWU+JywgJy1vbWFlJywgJzxvdXRmaWxlLm1hZT4n

> <r_lp_tautomer_probability>
1

> <r_epik_Ionization_Penalty>
  0.0095

> <r_epik_Ionization_Penalty_Charging>
  0.0095

> <r_epik_Ionization_Penalty_Neutral>
  0.0000

> <r_epik_State_Penalty>
 -0.0000

> <r_epik_Charging_Adjusted_Penalty>
0.00945881282357717

> <i_epik_Tot_Q>
1

> <i_epik_Tot_abs_Q>
1

> <s_epik_Chemistry_Notes>
This compound has an ester and may undergo hydrolysis at high or low pH. This compound has an imine and may undergo hydrolysis.

> <s_lp_Force_Field>
OPLS3e

> <r_lp_Energy>
31.555756

> <b_lp_Chiralities_Consistent>
1

> <s_lp_Variant>
sdf/actives_sanitized.sdf:78-1

$$$$
sdf/actives_sanitized.sdf:79
                    3D
 Schrodinger Suite 2020-1.
 77 81  0  0  1  0            999 V2000
  -10.8379    1.1088   -4.7263 C   0  0  0  0  0  0
   -9.7771    0.1670   -4.6400 O   0  0  0  0  0  0
   -8.5473    0.5469   -4.2391 C   0  0  0  0  0  0
   -8.2464    1.6972   -3.9120 O   0  0  0  0  0  0
   -7.7181   -0.5708   -4.2500 N   0  0  0  0  0  0
   -6.3500   -0.6610   -3.9447 C   0  0  0  0  0  0
   -5.8257   -1.9457   -3.7900 C   0  0  0  0  0  0
   -4.4792   -2.1293   -3.4802 C   0  0  0  0  0  0
   -3.6237   -1.0353   -3.3154 C   0  0  0  0  0  0
   -4.1458    0.2661   -3.5000 C   0  0  0  0  0  0
   -3.3075    1.3960   -3.5076 N   0  0  0  0  0  0
   -3.1950    2.3634   -2.5683 C   0  0  0  0  0  0
   -2.4890    3.3434   -2.8014 O   0  0  0  0  0  0
   -3.9270    2.2774   -1.2014 C   0  0  2  0  0  0
   -5.2197    3.1209   -1.2642 C   0  0  0  0  0  0
   -3.0483    2.7298    0.0185 C   0  0  0  0  0  0
   -1.9648    1.7543    0.5613 C   0  0  0  0  0  0
   -0.6294    1.6864   -0.2308 C   0  0  0  0  0  0
    0.0847    0.2875   -0.2474 C   0  0  2  0  0  0
    1.5646    0.3834   -0.1459 N   0  0  0  0  0  0
    2.2252   -0.5214    0.8356 C   0  0  0  0  0  0
    3.6304   -0.0142    1.2547 C   0  0  0  0  0  0
    4.4056    0.3600    0.0048 C   0  0  0  0  0  0
    3.7345    0.8779   -1.0412 C   0  0  0  0  0  0
    2.2983    1.0458   -1.1051 C   0  0  0  0  0  0
    1.8063    1.7764   -1.9658 O   0  0  0  0  0  0
    5.8877    0.3901    0.0198 C   0  0  0  0  0  0
    6.5774   -0.6048   -0.6938 C   0  0  0  0  0  0
    5.8749   -1.5427   -1.3805 F   0  0  0  0  0  0
    7.9785   -0.6368   -0.7006 C   0  0  0  0  0  0
    8.6959    0.3238    0.0124 C   0  0  0  0  0  0
    8.0243    1.3101    0.7289 C   0  0  0  0  0  0
    6.6271    1.3531    0.7422 C   0  0  0  0  0  0
    5.9879    2.4243    1.5037 C   0  0  0  0  0  0
    5.4811    3.2721    2.1066 N   0  0  0  0  0  0
    8.7025   -1.6611   -1.4430 C   0  0  0  0  0  0
    9.2779   -2.4739   -2.0325 N   0  0  0  0  0  0
   -0.4289   -0.6406   -1.3755 C   0  0  0  0  0  0
   -1.7657   -0.5936   -1.7537 C   0  0  0  0  0  0
   -2.2170   -1.2613   -2.8853 C   0  0  0  0  0  0
   -1.3140   -2.0881   -3.5633 C   0  0  0  0  0  0
    0.0082   -2.1662   -3.1078 C   0  0  0  0  0  0
    0.8941   -2.9825   -3.7880 O   0  0  0  0  0  0
    2.2545   -3.0499   -3.3610 C   0  0  0  0  0  0
    0.4517   -1.4453   -2.0332 N   0  0  0  0  0  0
   -5.4964    0.4444   -3.8172 C   0  0  0  0  0  0
  -11.7513    0.6077   -5.0462 H   0  0  0  0  0  0
  -10.6082    1.8916   -5.4506 H   0  0  0  0  0  0
  -11.0285    1.5760   -3.7589 H   0  0  0  0  0  0
   -8.1595   -1.4426   -4.5030 H   0  0  0  0  0  0
   -6.4612   -2.8134   -3.8968 H   0  0  0  0  0  0
   -4.1052   -3.1337   -3.3418 H   0  0  0  0  0  0
   -2.7097    1.4803   -4.3170 H   0  0  0  0  0  0
   -4.2455    1.2510   -1.0213 H   0  0  0  0  0  0
   -5.8730    2.8094   -2.0800 H   0  0  0  0  0  0
   -5.0038    4.1809   -1.4072 H   0  0  0  0  0  0
   -5.7983    3.0250   -0.3448 H   0  0  0  0  0  0
   -2.5998    3.7066   -0.1710 H   0  0  0  0  0  0
   -3.7261    2.9045    0.8558 H   0  0  0  0  0  0
   -1.7143    2.0668    1.5763 H   0  0  0  0  0  0
   -2.4051    0.7689    0.7073 H   0  0  0  0  0  0
   -0.7760    2.0166   -1.2574 H   0  0  0  0  0  0
    0.0361    2.4383    0.1968 H   0  0  0  0  0  0
   -0.2407   -0.2102    0.6668 H   0  0  0  0  0  0
    1.5710   -0.8167    1.6561 H   0  0  0  0  0  0
    2.4216   -1.4414    0.2817 H   0  0  0  0  0  0
    3.5015    0.8669    1.8844 H   0  0  0  0  0  0
    4.1611   -0.7631    1.8434 H   0  0  0  0  0  0
    4.2975    1.2229   -1.8976 H   0  0  0  0  0  0
    9.7774    0.3168    0.0185 H   0  0  0  0  0  0
    8.6058    2.0427    1.2721 H   0  0  0  0  0  0
   -2.4686    0.0073   -1.2173 H   0  0  0  0  0  0
   -1.6240   -2.6422   -4.4373 H   0  0  0  0  0  0
    2.8062   -3.7268   -4.0130 H   0  0  0  0  0  0
    2.3343   -3.4311   -2.3416 H   0  0  0  0  0  0
    2.7376   -2.0726   -3.4111 H   0  0  0  0  0  0
   -5.8537    1.4470   -3.9922 H   0  0  0  0  0  0
  1  2  1  0  0  0
  1 47  1  0  0  0
  1 48  1  0  0  0
  1 49  1  0  0  0
  2  3  1  0  0  0
  3  4  2  0  0  0
  3  5  1  0  0  0
  5  6  1  0  0  0
  5 50  1  0  0  0
  6  7  2  0  0  0
  6 46  1  0  0  0
  7  8  1  0  0  0
  7 51  1  0  0  0
  8  9  2  0  0  0
  8 52  1  0  0  0
  9 10  1  0  0  0
  9 40  1  0  0  0
 10 11  1  0  0  0
 10 46  2  0  0  0
 11 12  1  0  0  0
 11 53  1  0  0  0
 12 13  2  0  0  0
 12 14  1  0  0  0
 14 15  1  0  0  0
 14 16  1  0  0  0
 14 54  1  0  0  0
 15 55  1  0  0  0
 15 56  1  0  0  0
 15 57  1  0  0  0
 16 17  1  0  0  0
 16 58  1  0  0  0
 16 59  1  0  0  0
 17 18  1  0  0  0
 17 60  1  0  0  0
 17 61  1  0  0  0
 18 19  1  0  0  0
 18 62  1  0  0  0
 18 63  1  0  0  0
 19 20  1  0  0  0
 19 38  1  0  0  0
 19 64  1  0  0  0
 20 21  1  0  0  0
 20 25  1  0  0  0
 21 22  1  0  0  0
 21 65  1  0  0  0
 21 66  1  0  0  0
 22 23  1  0  0  0
 22 67  1  0  0  0
 22 68  1  0  0  0
 23 24  2  0  0  0
 23 27  1  0  0  0
 24 25  1  0  0  0
 24 69  1  0  0  0
 25 26  2  0  0  0
 27 28  2  0  0  0
 27 33  1  0  0  0
 28 29  1  0  0  0
 28 30  1  0  0  0
 30 31  2  0  0  0
 30 36  1  0  0  0
 31 32  1  0  0  0
 31 70  1  0  0  0
 32 33  2  0  0  0
 32 71  1  0  0  0
 33 34  1  0  0  0
 34 35  3  0  0  0
 36 37  3  0  0  0
 38 39  1  0  0  0
 38 45  2  0  0  0
 39 40  2  0  0  0
 39 72  1  0  0  0
 40 41  1  0  0  0
 41 42  2  0  0  0
 41 73  1  0  0  0
 42 43  1  0  0  0
 42 45  1  0  0  0
 43 44  1  0  0  0
 44 74  1  0  0  0
 44 75  1  0  0  0
 44 76  1  0  0  0
 46 77  1  0  0  0
M  END
> <chembl_id>
CHEMBL4113030

> <chembl_pref_name>
None

> <i_m_ct_stereo_status>
1

> <s_m_source_file>
sdf/actives_sanitized.sdf

> <i_m_source_file_index>
79

> <i_lp_mmshare_version>
49012

> <i_f3d_flags>
0

> <s_epik_input>
W0NIM11PQyg9TylbTkhdYyhbY0hdW2NIXTEpW2NIXWMoYzEyKVtOSF1DKD1PKVtDQEhdKFtDSDNdKVtDSDJdW0NIMl1bQ0gyXVtDQEBIXShjM1tjSF1jMltjSF1jKG4zKU9bQ0gzXSlONFtDSDJdW0NIMl1DKD1bQ0hdQzQ9TyljNWMoRiljKEMjTilbY0hdW2NIXWM1QyNO

> <s_epik_cmdline>
J2VwaWtfcHl0aG9uJywgJy1waHQnLCAnMC41JywgJy1waCcsICc3LjUnLCAnLW50JywgJy1tYScsICcyMDAnLCAnLWltYWUnLCAnPGluZmlsZS5tYWU+JywgJy1vbWFlJywgJzxvdXRmaWxlLm1hZT4n

> <r_lp_tautomer_probability>
1

> <r_epik_Ionization_Penalty>
  0.0001

> <r_epik_Ionization_Penalty_Charging>
  0.0000

> <r_epik_Ionization_Penalty_Neutral>
  0.0001

> <r_epik_State_Penalty>
 -0.0000

> <r_epik_Charging_Adjusted_Penalty>
0

> <i_epik_Tot_Q>
0

> <i_epik_Tot_abs_Q>
0

> <s_epik_Chemistry_Notes>
This compound has an ester and may undergo hydrolysis at high or low pH.

> <s_lp_Force_Field>
OPLS3e

> <r_lp_Energy>
99.183899

> <b_lp_Chiralities_Consistent>
1

> <s_lp_Variant>
sdf/actives_sanitized.sdf:79-1

$$$$
sdf/actives_sanitized.sdf:80
                    3D
 Schrodinger Suite 2020-1.
 82 87  0  0  1  0            999 V2000
   -6.0848   -0.4322    2.8890 C   0  0  0  0  0  0
   -5.9942    0.1379    1.4698 C   0  0  0  0  0  0
   -4.8307   -0.3707    0.8315 O   0  0  0  0  0  0
   -4.5294   -0.0151   -0.4359 C   0  0  0  0  0  0
   -5.1870    0.7369   -1.1573 O   0  0  0  0  0  0
   -3.2401   -0.6715   -0.9391 C   0  0  0  0  0  0
   -1.9671   -0.2004   -0.2525 C   0  0  0  0  0  0
   -0.8140   -0.8447   -0.5610 O   0  0  0  0  0  0
    0.1048   -0.1916    0.1963 C   0  0  0  0  0  0
    1.4100   -0.6228    0.2060 N   0  0  0  0  0  0
    2.0669   -1.4140   -0.7520 C   0  0  0  0  0  0
    3.2306   -2.0785   -0.3634 C   0  0  0  0  0  0
    3.9188   -2.8883   -1.2643 C   0  0  0  0  0  0
    3.4692   -3.0480   -2.5793 C   0  0  0  0  0  0
    2.3210   -2.3356   -2.9909 C   0  0  0  0  0  0
    1.7843   -2.4174   -4.2862 N   0  0  0  0  0  0
    2.2873   -1.9081   -5.4345 C   0  0  0  0  0  0
    1.6377   -2.0216   -6.4733 O   0  0  0  0  0  0
    3.6571   -1.1800   -5.4938 C   0  0  2  0  0  0
    3.4707    0.3221   -5.7913 C   0  0  0  0  0  0
    4.6027   -1.8614   -6.5277 C   0  0  0  0  0  0
    6.1059   -1.5033   -6.3791 C   0  0  0  0  0  0
    7.0902   -2.6559   -6.7210 C   0  0  0  0  0  0
    7.4281   -3.6297   -5.5462 C   0  0  2  0  0  0
    8.4556   -4.6445   -5.8895 N   0  0  0  0  0  0
    8.4318   -5.2934   -7.2346 C   0  0  0  0  0  0
    9.0883   -6.7012   -7.2478 C   0  0  0  0  0  0
   10.4016   -6.6442   -6.4869 C   0  0  0  0  0  0
   10.4533   -5.8582   -5.3928 C   0  0  0  0  0  0
    9.3891   -4.9876   -4.9423 C   0  0  0  0  0  0
    9.3607   -4.6033   -3.7715 O   0  0  0  0  0  0
   11.4822   -7.6290   -6.7480 C   0  0  0  0  0  0
   12.8201   -7.2053   -6.8391 C   0  0  0  0  0  0
   13.1422   -5.8968   -6.7042 F   0  0  0  0  0  0
   13.8416   -8.1217   -7.0857 C   0  0  0  0  0  0
   13.5467   -9.4720   -7.2490 C   0  0  0  0  0  0
   12.2270   -9.9108   -7.1662 C   0  0  0  0  0  0
   11.8788  -11.5914   -7.3691 Cl  0  0  0  0  0  0
   11.1982   -8.9964   -6.9173 C   0  0  0  0  0  0
    9.9254   -9.4511   -6.8232 F   0  0  0  0  0  0
    6.1684   -4.2263   -4.9140 C   0  0  0  0  0  0
    5.5295   -3.5326   -3.8850 C   0  0  0  0  0  0
    4.2425   -3.9163   -3.5010 C   0  0  0  0  0  0
    3.6909   -5.0711   -4.0698 C   0  0  0  0  0  0
    4.4323   -5.7726   -5.0233 C   0  0  0  0  0  0
    5.6471   -5.3572   -5.4647 N   0  0  0  0  0  0
    1.6241   -1.5415   -2.0749 C   0  0  0  0  0  0
   -0.4265    0.7513    0.9319 N   0  0  0  0  0  0
   -1.7848    0.7587    0.6270 N   0  0  0  0  0  0
   -6.9729   -0.0604    3.3999 H   0  0  0  0  0  0
   -5.2158   -0.1485    3.4837 H   0  0  0  0  0  0
   -6.1413   -1.5213    2.8743 H   0  0  0  0  0  0
   -6.8834   -0.1381    0.9005 H   0  0  0  0  0  0
   -5.9528    1.2276    1.5087 H   0  0  0  0  0  0
   -3.3503   -1.7489   -0.8149 H   0  0  0  0  0  0
   -3.1663   -0.5010   -2.0132 H   0  0  0  0  0  0
    1.9472   -0.5103    1.0534 H   0  0  0  0  0  0
    3.6037   -1.9840    0.6466 H   0  0  0  0  0  0
    4.8094   -3.4025   -0.9318 H   0  0  0  0  0  0
    0.8521   -2.8017   -4.3376 H   0  0  0  0  0  0
    4.1291   -1.2405   -4.5160 H   0  0  0  0  0  0
    2.8424    0.8024   -5.0394 H   0  0  0  0  0  0
    3.0038    0.4884   -6.7635 H   0  0  0  0  0  0
    4.4275    0.8451   -5.7925 H   0  0  0  0  0  0
    4.4847   -2.9422   -6.4610 H   0  0  0  0  0  0
    4.2768   -1.6279   -7.5431 H   0  0  0  0  0  0
    6.3150   -0.6534   -7.0303 H   0  0  0  0  0  0
    6.3211   -1.1415   -5.3731 H   0  0  0  0  0  0
    6.7135   -3.1983   -7.5886 H   0  0  0  0  0  0
    8.0267   -2.2014   -7.0482 H   0  0  0  0  0  0
    7.8650   -2.9846   -4.7808 H   0  0  0  0  0  0
    7.4403   -5.2695   -7.6866 H   0  0  0  0  0  0
    9.0472   -4.6572   -7.8723 H   0  0  0  0  0  0
    8.4078   -7.3879   -6.7423 H   0  0  0  0  0  0
    9.2256   -7.0580   -8.2689 H   0  0  0  0  0  0
   11.3372   -5.8879   -4.7711 H   0  0  0  0  0  0
   14.8654   -7.7837   -7.1545 H   0  0  0  0  0  0
   14.3437  -10.1758   -7.4404 H   0  0  0  0  0  0
    5.9674   -2.6295   -3.4845 H   0  0  0  0  0  0
    2.7016   -5.4061   -3.7942 H   0  0  0  0  0  0
    4.0341   -6.6661   -5.4810 H   0  0  0  0  0  0
    0.7461   -1.0079   -2.4089 H   0  0  0  0  0  0
  1  2  1  0  0  0
  1 50  1  0  0  0
  1 51  1  0  0  0
  1 52  1  0  0  0
  2  3  1  0  0  0
  2 53  1  0  0  0
  2 54  1  0  0  0
  3  4  1  0  0  0
  4  5  2  0  0  0
  4  6  1  0  0  0
  6  7  1  0  0  0
  6 55  1  0  0  0
  6 56  1  0  0  0
  7  8  1  0  0  0
  7 49  2  0  0  0
  8  9  1  0  0  0
  9 10  1  0  0  0
  9 48  2  0  0  0
 10 11  1  0  0  0
 10 57  1  0  0  0
 11 12  2  0  0  0
 11 47  1  0  0  0
 12 13  1  0  0  0
 12 58  1  0  0  0
 13 14  2  0  0  0
 13 59  1  0  0  0
 14 15  1  0  0  0
 14 43  1  0  0  0
 15 16  1  0  0  0
 15 47  2  0  0  0
 16 17  1  0  0  0
 16 60  1  0  0  0
 17 18  2  0  0  0
 17 19  1  0  0  0
 19 20  1  0  0  0
 19 21  1  0  0  0
 19 61  1  0  0  0
 20 62  1  0  0  0
 20 63  1  0  0  0
 20 64  1  0  0  0
 21 22  1  0  0  0
 21 65  1  0  0  0
 21 66  1  0  0  0
 22 23  1  0  0  0
 22 67  1  0  0  0
 22 68  1  0  0  0
 23 24  1  0  0  0
 23 69  1  0  0  0
 23 70  1  0  0  0
 24 25  1  0  0  0
 24 41  1  0  0  0
 24 71  1  0  0  0
 25 26  1  0  0  0
 25 30  1  0  0  0
 26 27  1  0  0  0
 26 72  1  0  0  0
 26 73  1  0  0  0
 27 28  1  0  0  0
 27 74  1  0  0  0
 27 75  1  0  0  0
 28 29  2  0  0  0
 28 32  1  0  0  0
 29 30  1  0  0  0
 29 76  1  0  0  0
 30 31  2  0  0  0
 32 33  2  0  0  0
 32 39  1  0  0  0
 33 34  1  0  0  0
 33 35  1  0  0  0
 35 36  2  0  0  0
 35 77  1  0  0  0
 36 37  1  0  0  0
 36 78  1  0  0  0
 37 38  1  0  0  0
 37 39  2  0  0  0
 39 40  1  0  0  0
 41 42  1  0  0  0
 41 46  2  0  0  0
 42 43  2  0  0  0
 42 79  1  0  0  0
 43 44  1  0  0  0
 44 45  2  0  0  0
 44 80  1  0  0  0
 45 46  1  0  0  0
 45 81  1  0  0  0
 47 82  1  0  0  0
 48 49  1  0  0  0
M  END
> <chembl_id>
CHEMBL4107368

> <chembl_pref_name>
None

> <i_m_ct_stereo_status>
1

> <s_m_source_file>
sdf/actives_sanitized.sdf

> <i_m_source_file_index>
80

> <i_lp_mmshare_version>
49012

> <i_f3d_flags>
0

> <s_epik_input>
W0NIM11bQ0gyXU9DKD1PKVtDSDJdYzFvYyhubjEpW05IXWMoW2NIXVtjSF0yKVtjSF1jKGMyMylbTkhdQyg9TylbQ0BIXShbQ0gzXSlbQ0gyXVtDSDJdW0NIMl1bQ0BASF0oYzRbY0hdYzNbY0hdW2NIXW40KU41W0NIMl1bQ0gyXUMoPVtDSF1DNT1PKWM2YyhGKVtjSF1bY0hdYyhDbCljNkY=

> <s_epik_cmdline>
J2VwaWtfcHl0aG9uJywgJy1waHQnLCAnMC41JywgJy1waCcsICc3LjUnLCAnLW50JywgJy1tYScsICcyMDAnLCAnLWltYWUnLCAnPGluZmlsZS5tYWU+JywgJy1vbWFlJywgJzxvdXRmaWxlLm1hZT4n

> <r_lp_tautomer_probability>
1

> <r_epik_Ionization_Penalty>
  0.0001

> <r_epik_Ionization_Penalty_Charging>
  0.0000

> <r_epik_Ionization_Penalty_Neutral>
  0.0001

> <r_epik_State_Penalty>
 -0.0000

> <r_epik_Charging_Adjusted_Penalty>
0

> <i_epik_Tot_Q>
0

> <i_epik_Tot_abs_Q>
0

> <s_epik_Chemistry_Notes>
This compound has an ester and may undergo hydrolysis at high or low pH.

> <s_lp_Force_Field>
OPLS3e

> <r_lp_Energy>
96.366662

> <b_lp_Chiralities_Consistent>
1

> <s_lp_Variant>
sdf/actives_sanitized.sdf:80-1

$$$$
sdf/actives_sanitized.sdf:81
                    3D
 Schrodinger Suite 2020-1.
 63 67  0  0  1  0            999 V2000
   -5.2803    1.6750   -0.7049 C   0  0  0  0  0  0
   -4.1546    0.9497   -1.4701 C   0  0  2  0  0  0
   -2.7815    1.6645   -1.2971 C   0  0  0  0  0  0
   -2.1216    1.4948    0.0975 C   0  0  0  0  0  0
   -0.5698    1.4191    0.0783 C   0  0  0  0  0  0
    0.0395   -0.0036   -0.1425 C   0  0  2  0  0  0
    1.5212   -0.0357   -0.0499 N   0  0  0  0  0  0
    2.3198    1.0688   -0.6613 C   0  0  0  0  0  0
    3.7580    0.6426   -1.0633 C   0  0  0  0  0  0
    4.3651   -0.1814    0.0545 C   0  0  0  0  0  0
    3.5567   -1.0057    0.7475 C   0  0  0  0  0  0
    2.1239   -1.1023    0.5718 C   0  0  0  0  0  0
    1.5225   -2.1038    0.9647 O   0  0  0  0  0  0
    5.8321   -0.3103    0.1536 C   0  0  0  0  0  0
    6.5896    0.8075    0.5219 C   0  0  0  0  0  0
    7.9794    0.7297    0.6007 C   0  0  0  0  0  0
    8.6284   -0.4662    0.3005 C   0  0  0  0  0  0
    7.8888   -1.5848   -0.0834 C   0  0  0  0  0  0
    8.7103   -3.0564   -0.4652 Cl  0  0  0  0  0  0
    6.4942   -1.5084   -0.1623 C   0  0  0  0  0  0
    5.7865   -2.5962   -0.5528 F   0  0  0  0  0  0
   -0.5067   -0.6741   -1.4062 C   0  0  0  0  0  0
   -1.6920   -1.4081   -1.3320 C   0  0  0  0  0  0
   -2.3374   -1.7816   -2.5135 C   0  0  0  0  0  0
   -1.7014   -1.5239   -3.7341 C   0  0  0  0  0  0
   -0.4665   -0.8717   -3.7255 C   0  0  0  0  0  0
    0.1258   -0.4293   -2.5869 N   0  0  0  0  0  0
   -3.7055   -2.3520   -2.4461 C   0  0  0  0  0  0
   -3.8865   -3.6073   -1.8518 C   0  0  0  0  0  0
   -5.1542   -4.1774   -1.7501 C   0  0  0  0  0  0
   -6.2651   -3.4958   -2.2399 C   0  0  0  0  0  0
   -6.1091   -2.2412   -2.8252 C   0  0  0  0  0  0
   -4.8422   -1.6556   -2.9176 C   0  0  0  0  0  0
   -4.7740   -0.3989   -3.5408 N   0  0  0  0  0  0
   -4.5124    0.8012   -2.9734 C   0  0  0  0  0  0
   -4.5598    1.8152   -3.6688 O   0  0  0  0  0  0
   -6.2339    1.1556   -0.8117 H   0  0  0  0  0  0
   -5.4214    2.6962   -1.0624 H   0  0  0  0  0  0
   -5.0609    1.7267    0.3620 H   0  0  0  0  0  0
   -4.0755   -0.0414   -1.0293 H   0  0  0  0  0  0
   -2.0941    1.3063   -2.0625 H   0  0  0  0  0  0
   -2.8830    2.7285   -1.5187 H   0  0  0  0  0  0
   -2.4295    2.3367    0.7193 H   0  0  0  0  0  0
   -2.5126    0.6145    0.6090 H   0  0  0  0  0  0
   -0.1912    2.1292   -0.6572 H   0  0  0  0  0  0
   -0.2109    1.7823    1.0424 H   0  0  0  0  0  0
   -0.3446   -0.5930    0.6928 H   0  0  0  0  0  0
    1.7779    1.5799   -1.4569 H   0  0  0  0  0  0
    2.4287    1.8138    0.1281 H   0  0  0  0  0  0
    3.6934    0.0242   -1.9598 H   0  0  0  0  0  0
    4.3696    1.5108   -1.3108 H   0  0  0  0  0  0
    3.9984   -1.6793    1.4688 H   0  0  0  0  0  0
    6.1001    1.7428    0.7544 H   0  0  0  0  0  0
    8.5534    1.5970    0.8921 H   0  0  0  0  0  0
    9.7055   -0.5217    0.3614 H   0  0  0  0  0  0
   -2.1731   -1.5695   -0.3779 H   0  0  0  0  0  0
   -2.1640   -1.8044   -4.6692 H   0  0  0  0  0  0
    0.0487   -0.6568   -4.6499 H   0  0  0  0  0  0
   -3.0349   -4.1510   -1.4681 H   0  0  0  0  0  0
   -5.2739   -5.1488   -1.2933 H   0  0  0  0  0  0
   -7.2473   -3.9389   -2.1654 H   0  0  0  0  0  0
   -6.9807   -1.7237   -3.2006 H   0  0  0  0  0  0
   -5.0678   -0.3839   -4.5065 H   0  0  0  0  0  0
  1  2  1  0  0  0
  1 37  1  0  0  0
  1 38  1  0  0  0
  1 39  1  0  0  0
  2  3  1  0  0  0
  2 35  1  0  0  0
  2 40  1  0  0  0
  3  4  1  0  0  0
  3 41  1  0  0  0
  3 42  1  0  0  0
  4  5  1  0  0  0
  4 43  1  0  0  0
  4 44  1  0  0  0
  5  6  1  0  0  0
  5 45  1  0  0  0
  5 46  1  0  0  0
  6  7  1  0  0  0
  6 22  1  0  0  0
  6 47  1  0  0  0
  7  8  1  0  0  0
  7 12  1  0  0  0
  8  9  1  0  0  0
  8 48  1  0  0  0
  8 49  1  0  0  0
  9 10  1  0  0  0
  9 50  1  0  0  0
  9 51  1  0  0  0
 10 11  2  0  0  0
 10 14  1  0  0  0
 11 12  1  0  0  0
 11 52  1  0  0  0
 12 13  2  0  0  0
 14 15  2  0  0  0
 14 20  1  0  0  0
 15 16  1  0  0  0
 15 53  1  0  0  0
 16 17  2  0  0  0
 16 54  1  0  0  0
 17 18  1  0  0  0
 17 55  1  0  0  0
 18 19  1  0  0  0
 18 20  2  0  0  0
 20 21  1  0  0  0
 22 23  1  0  0  0
 22 27  2  0  0  0
 23 24  2  0  0  0
 23 56  1  0  0  0
 24 25  1  0  0  0
 24 28  1  0  0  0
 25 26  2  0  0  0
 25 57  1  0  0  0
 26 27  1  0  0  0
 26 58  1  0  0  0
 28 29  2  0  0  0
 28 33  1  0  0  0
 29 30  1  0  0  0
 29 59  1  0  0  0
 30 31  2  0  0  0
 30 60  1  0  0  0
 31 32  1  0  0  0
 31 61  1  0  0  0
 32 33  2  0  0  0
 32 62  1  0  0  0
 33 34  1  0  0  0
 34 35  1  0  0  0
 34 63  1  0  0  0
 35 36  2  0  0  0
M  END
> <chembl_id>
CHEMBL4107925

> <chembl_pref_name>
None

> <i_m_ct_stereo_status>
1

> <s_m_source_file>
sdf/actives_sanitized.sdf

> <i_m_source_file_index>
81

> <i_lp_mmshare_version>
49012

> <i_f3d_flags>
0

> <s_epik_input>
bjFbY0hdW2NIXWMoW2NIXWMxMiljM2MoW2NIXVtjSF1bY0hdW2NIXTMpW05IXUMoPU8pW0NASF0oW0NIM10pW0NIMl1bQ0gyXVtDSDJdW0NAQEhdMk40W0NIMl1bQ0gyXUMoPVtDSF1DND1PKWM1W2NIXVtjSF1bY0hdYyhDbCljNUY=

> <s_epik_cmdline>
J2VwaWtfcHl0aG9uJywgJy1waHQnLCAnMC41JywgJy1waCcsICc3LjUnLCAnLW50JywgJy1tYScsICcyMDAnLCAnLWltYWUnLCAnPGluZmlsZS5tYWU+JywgJy1vbWFlJywgJzxvdXRmaWxlLm1hZT4n

> <r_lp_tautomer_probability>
1

> <r_epik_Ionization_Penalty>
  0.0001

> <r_epik_Ionization_Penalty_Charging>
  0.0000

> <r_epik_Ionization_Penalty_Neutral>
  0.0001

> <r_epik_State_Penalty>
 -0.0000

> <r_epik_Charging_Adjusted_Penalty>
0

> <i_epik_Tot_Q>
0

> <i_epik_Tot_abs_Q>
0

> <s_lp_Force_Field>
OPLS3e

> <r_lp_Energy>
89.893469

> <b_lp_Chiralities_Consistent>
1

> <s_lp_Variant>
sdf/actives_sanitized.sdf:81-1

$$$$
sdf/actives_sanitized.sdf:82
                    3D
 Schrodinger Suite 2020-1.
 77 81  0  0  1  0            999 V2000
   -3.2202    1.0047   -0.0539 C   0  0  0  0  0  0
   -2.0027    0.2955   -0.2388 O   0  0  0  0  0  0
   -0.8137    0.8958   -0.0293 C   0  0  0  0  0  0
   -0.6812    2.0704    0.3211 O   0  0  0  0  0  0
    0.1932   -0.0325   -0.2773 N   0  0  0  0  0  0
    1.5884    0.1102   -0.1840 C   0  0  0  0  0  0
    2.3492   -1.0049   -0.5382 C   0  0  0  0  0  0
    3.7404   -0.9603   -0.4821 C   0  0  0  0  0  0
    4.4088    0.1989   -0.0748 C   0  0  0  0  0  0
    3.6414    1.3209    0.3094 C   0  0  0  0  0  0
    4.2097    2.5377    0.7206 N   0  0  0  0  0  0
    4.8428    2.8118    1.8842 C   0  0  0  0  0  0
    5.2246    3.9612    2.1020 O   0  0  0  0  0  0
    5.1085    1.7264    2.9615 C   0  0  2  0  0  0
    4.2562    1.9814    4.2212 C   0  0  0  0  0  0
    6.6277    1.6411    3.2936 C   0  0  0  0  0  0
    7.0776    0.3407    4.0116 C   0  0  0  0  0  0
    8.4954   -0.1569    3.6153 C   0  0  0  0  0  0
    8.5552   -1.0998    2.3707 C   0  0  2  0  0  0
    9.9012   -1.6748    2.1056 N   0  0  0  0  0  0
   11.1199   -0.8206    2.2216 C   0  0  0  0  0  0
   12.4180   -1.6461    2.4269 C   0  0  0  0  0  0
   12.4474   -2.8070    1.4452 C   0  0  0  0  0  0
   11.2741   -3.3266    1.0366 C   0  0  0  0  0  0
    9.9661   -2.9005    1.4855 C   0  0  0  0  0  0
    8.9999   -3.6521    1.3411 O   0  0  0  0  0  0
   13.7970   -3.3770    1.0097 C   0  0  0  0  0  0
   14.6717   -3.8185    2.1983 C   0  0  0  0  0  0
   15.9022   -4.5835    1.6739 C   0  0  0  0  0  0
   16.6706   -3.6844    0.6803 N   0  3  0  0  0  0
   15.8089   -3.1375   -0.4789 C   0  0  0  0  0  0
   14.5847   -2.4086    0.1073 C   0  0  0  0  0  0
    7.9048   -0.4575    1.1412 C   0  0  0  0  0  0
    6.5333   -0.6143    0.9329 C   0  0  0  0  0  0
    5.8916    0.1888   -0.0137 C   0  0  0  0  0  0
    6.6719    1.0294   -0.8170 C   0  0  0  0  0  0
    8.0536    1.0610   -0.6163 C   0  0  0  0  0  0
    8.6740    0.3483    0.3585 N   0  0  0  0  0  0
    2.2453    1.2761    0.2380 C   0  0  0  0  0  0
   -4.0653    0.3495   -0.2650 H   0  0  0  0  0  0
   -3.2801    1.8629   -0.7251 H   0  0  0  0  0  0
   -3.3150    1.3606    0.9731 H   0  0  0  0  0  0
   -0.1202   -0.9475   -0.5663 H   0  0  0  0  0  0
    1.8676   -1.9165   -0.8627 H   0  0  0  0  0  0
    4.3047   -1.8380   -0.7639 H   0  0  0  0  0  0
    4.0143    3.3254    0.1200 H   0  0  0  0  0  0
    4.7950    0.7608    2.5717 H   0  0  0  0  0  0
    3.1922    2.0147    3.9818 H   0  0  0  0  0  0
    4.5138    2.9269    4.7009 H   0  0  0  0  0  0
    4.3947    1.1891    4.9574 H   0  0  0  0  0  0
    7.1991    1.7530    2.3726 H   0  0  0  0  0  0
    6.9289    2.5033    3.8914 H   0  0  0  0  0  0
    7.0510    0.5233    5.0867 H   0  0  0  0  0  0
    6.3590   -0.4635    3.8489 H   0  0  0  0  0  0
    9.1404    0.7117    3.4843 H   0  0  0  0  0  0
    8.9060   -0.7038    4.4654 H   0  0  0  0  0  0
    7.9123   -1.9386    2.6458 H   0  0  0  0  0  0
   11.2424   -0.3814    1.2303 H   0  0  0  0  0  0
   11.0146    0.0316    2.8890 H   0  0  0  0  0  0
   13.2976   -1.0099    2.3291 H   0  0  0  0  0  0
   12.4303   -2.0413    3.4435 H   0  0  0  0  0  0
   11.2918   -4.1631    0.3525 H   0  0  0  0  0  0
   13.5800   -4.2693    0.4168 H   0  0  0  0  0  0
   15.0137   -2.9551    2.7717 H   0  0  0  0  0  0
   14.1070   -4.4594    2.8770 H   0  0  0  0  0  0
   16.6096   -4.8355    2.4644 H   0  0  0  0  0  0
   15.6363   -5.4877    1.1242 H   0  0  0  0  0  0
   17.0589   -2.9021    1.1882 H   0  0  0  0  0  0
   16.4580   -2.4763   -1.0538 H   0  0  0  0  0  0
   15.5372   -3.9992   -1.0907 H   0  0  0  0  0  0
   14.9317   -1.5421    0.6725 H   0  0  0  0  0  0
   13.9574   -2.0395   -0.7057 H   0  0  0  0  0  0
    5.9532   -1.2500    1.5867 H   0  0  0  0  0  0
    6.2146    1.6613   -1.5645 H   0  0  0  0  0  0
    8.6820    1.7018   -1.2170 H   0  0  0  0  0  0
    1.6930    2.1570    0.5247 H   0  0  0  0  0  0
   17.4518   -4.2003    0.2998 H   0  0  0  0  0  0
  1  2  1  0  0  0
  1 40  1  0  0  0
  1 41  1  0  0  0
  1 42  1  0  0  0
  2  3  1  0  0  0
  3  4  2  0  0  0
  3  5  1  0  0  0
  5  6  1  0  0  0
  5 43  1  0  0  0
  6  7  2  0  0  0
  6 39  1  0  0  0
  7  8  1  0  0  0
  7 44  1  0  0  0
  8  9  2  0  0  0
  8 45  1  0  0  0
  9 10  1  0  0  0
  9 35  1  0  0  0
 10 11  1  0  0  0
 10 39  2  0  0  0
 11 12  1  0  0  0
 11 46  1  0  0  0
 12 13  2  0  0  0
 12 14  1  0  0  0
 14 15  1  0  0  0
 14 16  1  0  0  0
 14 47  1  0  0  0
 15 48  1  0  0  0
 15 49  1  0  0  0
 15 50  1  0  0  0
 16 17  1  0  0  0
 16 51  1  0  0  0
 16 52  1  0  0  0
 17 18  1  0  0  0
 17 53  1  0  0  0
 17 54  1  0  0  0
 18 19  1  0  0  0
 18 55  1  0  0  0
 18 56  1  0  0  0
 19 20  1  0  0  0
 19 33  1  0  0  0
 19 57  1  0  0  0
 20 21  1  0  0  0
 20 25  1  0  0  0
 21 22  1  0  0  0
 21 58  1  0  0  0
 21 59  1  0  0  0
 22 23  1  0  0  0
 22 60  1  0  0  0
 22 61  1  0  0  0
 23 24  2  0  0  0
 23 27  1  0  0  0
 24 25  1  0  0  0
 24 62  1  0  0  0
 25 26  2  0  0  0
 27 28  1  0  0  0
 27 32  1  0  0  0
 27 63  1  0  0  0
 28 29  1  0  0  0
 28 64  1  0  0  0
 28 65  1  0  0  0
 29 30  1  0  0  0
 29 66  1  0  0  0
 29 67  1  0  0  0
 30 31  1  0  0  0
 30 68  1  0  0  0
 30 77  1  0  0  0
 31 32  1  0  0  0
 31 69  1  0  0  0
 31 70  1  0  0  0
 32 71  1  0  0  0
 32 72  1  0  0  0
 33 34  1  0  0  0
 33 38  2  0  0  0
 34 35  2  0  0  0
 34 73  1  0  0  0
 35 36  1  0  0  0
 36 37  2  0  0  0
 36 74  1  0  0  0
 37 38  1  0  0  0
 37 75  1  0  0  0
 39 76  1  0  0  0
M  CHG  1  30   1
M  END
> <chembl_id>
CHEMBL4110705

> <chembl_pref_name>
None

> <i_m_ct_stereo_status>
1

> <s_m_source_file>
sdf/actives_sanitized.sdf

> <i_m_source_file_index>
82

> <i_lp_mmshare_version>
49012

> <i_f3d_flags>
0

> <s_epik_input>
W0NIM11PQyg9TylbTkhdYyhbY0hdW2NIXTEpW2NIXWMoYzEyKVtOSF1DKD1PKVtDQEhdKFtDSDNdKVtDSDJdW0NIMl1bQ0gyXVtDQEBIXShjM1tjSF1jMltjSF1bY0hdbjMpTjRbQ0gyXVtDSDJdQyg9W0NIXUM0PU8pW0NIXTVbQ0gyXVtDSDJdW05IXVtDSDJdW0NIMl01

> <s_epik_cmdline>
J2VwaWtfcHl0aG9uJywgJy1waHQnLCAnMC41JywgJy1waCcsICc3LjUnLCAnLW50JywgJy1tYScsICcyMDAnLCAnLWltYWUnLCAnPGluZmlsZS5tYWU+JywgJy1vbWFlJywgJzxvdXRmaWxlLm1hZT4n

> <r_lp_tautomer_probability>
1

> <r_epik_Ionization_Penalty>
  0.0036

> <r_epik_Ionization_Penalty_Charging>
  0.0035

> <r_epik_Ionization_Penalty_Neutral>
  0.0001

> <r_epik_State_Penalty>
 -0.0000

> <r_epik_Charging_Adjusted_Penalty>
0.00354638418741673

> <i_epik_Tot_Q>
1

> <i_epik_Tot_abs_Q>
1

> <s_epik_Chemistry_Notes>
This compound has an ester and may undergo hydrolysis at high or low pH.

> <s_lp_Force_Field>
OPLS3e

> <r_lp_Energy>
88.370358

> <b_lp_Chiralities_Consistent>
1

> <s_lp_Variant>
sdf/actives_sanitized.sdf:82-1

$$$$
sdf/actives_sanitized.sdf:83
                    3D
 Schrodinger Suite 2020-1.
 60 65  0  0  1  0            999 V2000
   -0.4469    1.4528   -0.0370 C   0  0  0  0  0  0
   -1.2012    1.9315   -1.1218 C   0  0  0  0  0  0
   -1.5652    3.2727   -1.1998 C   0  0  0  0  0  0
   -1.1779    4.1543   -0.1959 C   0  0  0  0  0  0
   -0.4265    3.7054    0.8852 C   0  0  0  0  0  0
   -0.0633    2.3640    0.9617 C   0  0  0  0  0  0
   -4.7262   -2.2396   -3.9438 C   0  0  0  0  0  0
   -5.0911   -1.9698   -2.6246 C   0  0  0  0  0  0
   -2.3842   -1.7917   -3.4499 C   0  0  0  0  0  0
   -3.3942   -2.1489   -4.3402 C   0  0  0  0  0  0
   -2.7566   -1.5205   -2.1254 C   0  0  0  0  0  0
   -4.1063   -1.6096   -1.6830 C   0  0  0  0  0  0
   -4.1223   -1.2799   -0.2771 C   0  0  0  0  0  0
   -1.9922   -1.1362   -1.0403 N   0  0  0  0  0  0
   -2.7955   -1.0187    0.0876 C   0  0  0  0  0  0
   -2.1952   -0.5940    1.4312 C   0  0  0  0  0  0
   -0.6525   -0.6278    1.4013 C   0  0  0  0  0  0
   -0.0354   -0.0416    0.0945 C   0  0  1  0  0  0
   -0.5296   -0.9727   -1.0631 C   0  0  0  0  0  0
    1.4406   -0.0111    0.1271 N   0  0  0  0  0  0
    2.3049   -1.0143    0.3816 C   0  0  0  0  0  0
    3.7504   -0.6462    0.2084 C   0  0  0  0  0  0
    1.9862   -2.1507    0.7316 O   0  0  0  0  0  0
    4.5031   -0.6936    1.3410 N   0  0  0  0  0  0
    5.8239   -0.3989    1.2521 C   0  0  0  0  0  0
    6.4468   -0.0567    0.0472 C   0  0  0  0  0  0
    5.6662   -0.0234   -1.1145 C   0  0  0  0  0  0
    4.3036   -0.3255   -1.0469 C   0  0  0  0  0  0
    3.3721   -0.3029   -2.5088 Cl  0  0  0  0  0  0
    7.8231    0.2414    0.0034 N   0  0  0  0  0  0
   -5.7957   -2.6201   -4.9520 C   0  0  0  0  0  0
    8.8387   -0.2491    0.7939 C   0  0  0  0  0  0
   10.0035    0.2525    0.4670 N   0  0  0  0  0  0
    9.7801    1.1264   -0.5926 N   0  0  0  0  0  0
    8.4946    1.0971   -0.8413 C   0  0  0  0  0  0
   -5.3060   -1.2274    0.5996 C   0  0  0  0  0  0
   -5.1477   -0.7938    1.7625 O   0  0  0  0  0  0
   -6.3944   -1.6171    0.1225 O   0  5  0  0  0  0
   -1.5184    1.2827   -1.9225 H   0  0  0  0  0  0
   -2.1479    3.6270   -2.0373 H   0  0  0  0  0  0
   -1.4628    5.1942   -0.2565 H   0  0  0  0  0  0
   -0.1290    4.3940    1.6623 H   0  0  0  0  0  0
    0.5185    2.0311    1.8089 H   0  0  0  0  0  0
   -6.1288   -2.0426   -2.3356 H   0  0  0  0  0  0
   -1.3588   -1.7263   -3.7821 H   0  0  0  0  0  0
   -3.1278   -2.3588   -5.3661 H   0  0  0  0  0  0
   -2.5279    0.4164    1.6715 H   0  0  0  0  0  0
   -2.5529   -1.2343    2.2380 H   0  0  0  0  0  0
   -0.2483   -0.1384    2.2883 H   0  0  0  0  0  0
   -0.3622   -1.6734    1.5081 H   0  0  0  0  0  0
   -0.0936   -1.9690   -0.9779 H   0  0  0  0  0  0
   -0.2095   -0.5894   -2.0330 H   0  0  0  0  0  0
    1.8386    0.7853   -0.3489 H   0  0  0  0  0  0
    6.3764   -0.4397    2.1796 H   0  0  0  0  0  0
    6.1103    0.2230   -2.0685 H   0  0  0  0  0  0
   -5.4324   -2.5549   -5.9786 H   0  0  0  0  0  0
   -6.6488   -1.9458   -4.8682 H   0  0  0  0  0  0
   -6.1537   -3.6326   -4.7633 H   0  0  0  0  0  0
    8.6381   -0.9694    1.5737 H   0  0  0  0  0  0
    7.9672    1.6589   -1.5983 H   0  0  0  0  0  0
  1  2  2  0  0  0
  1  6  1  0  0  0
  1 18  1  0  0  0
  2  3  1  0  0  0
  2 39  1  0  0  0
  3  4  2  0  0  0
  3 40  1  0  0  0
  4  5  1  0  0  0
  4 41  1  0  0  0
  5  6  2  0  0  0
  5 42  1  0  0  0
  6 43  1  0  0  0
  7  8  2  0  0  0
  7 10  1  0  0  0
  7 31  1  0  0  0
  8 12  1  0  0  0
  8 44  1  0  0  0
  9 11  1  0  0  0
  9 10  2  0  0  0
  9 45  1  0  0  0
 10 46  1  0  0  0
 11 12  2  0  0  0
 11 14  1  0  0  0
 12 13  1  0  0  0
 13 15  2  0  0  0
 13 36  1  0  0  0
 14 15  1  0  0  0
 14 19  1  0  0  0
 15 16  1  0  0  0
 16 17  1  0  0  0
 16 47  1  0  0  0
 16 48  1  0  0  0
 17 18  1  0  0  0
 17 49  1  0  0  0
 17 50  1  0  0  0
 18 19  1  0  0  0
 18 20  1  0  0  0
 19 51  1  0  0  0
 19 52  1  0  0  0
 20 21  1  0  0  0
 20 53  1  0  0  0
 21 22  1  0  0  0
 21 23  2  0  0  0
 22 24  2  0  0  0
 22 28  1  0  0  0
 24 25  1  0  0  0
 25 26  2  0  0  0
 25 54  1  0  0  0
 26 27  1  0  0  0
 26 30  1  0  0  0
 27 28  2  0  0  0
 27 55  1  0  0  0
 28 29  1  0  0  0
 30 32  1  0  0  0
 30 35  1  0  0  0
 31 56  1  0  0  0
 31 57  1  0  0  0
 31 58  1  0  0  0
 32 33  2  0  0  0
 32 59  1  0  0  0
 33 34  1  0  0  0
 34 35  2  0  0  0
 35 60  1  0  0  0
 36 37  2  0  0  0
 36 38  1  0  0  0
M  CHG  1  38  -1
M  END
> <chembl_id>
CHEMBL3629112

> <chembl_pref_name>
None

> <i_m_ct_stereo_status>
1

> <s_m_source_file>
sdf/actives_sanitized.sdf

> <i_m_source_file_index>
83

> <i_lp_mmshare_version>
49012

> <i_f3d_flags>
0

> <s_epik_input>
W2NIXTFbY0hdYyhbQ0gzXSlbY0hdYyhjMTIpYyhDKD1PKVtPSF0pYzNuMltDSDJdW0NAXShbQ0gyXVtDSDJdMykoYzRbY0hdW2NIXVtjSF1bY0hdW2NIXTQpW05IXUMoPU8pYzVuW2NIXWMoW2NIXWM1Q2wpLW42W2NIXW5uW2NIXTY=

> <s_epik_cmdline>
J2VwaWtfcHl0aG9uJywgJy1waHQnLCAnMC41JywgJy1waCcsICc3LjUnLCAnLW50JywgJy1tYScsICcyMDAnLCAnLWltYWUnLCAnPGluZmlsZS5tYWU+JywgJy1vbWFlJywgJzxvdXRmaWxlLm1hZT4n

> <r_lp_tautomer_probability>
1

> <r_epik_Ionization_Penalty>
  0.0021

> <r_epik_Ionization_Penalty_Charging>
  0.0019

> <r_epik_Ionization_Penalty_Neutral>
  0.0002

> <r_epik_State_Penalty>
 -0.0000

> <r_epik_Charging_Adjusted_Penalty>
0.00188283423597107

> <i_epik_Tot_Q>
-1

> <i_epik_Tot_abs_Q>
1

> <s_lp_Force_Field>
OPLS3e

> <r_lp_Energy>
54.235679

> <b_lp_Chiralities_Consistent>
1

> <s_lp_Variant>
sdf/actives_sanitized.sdf:83-1

$$$$
sdf/actives_sanitized.sdf:84
                    3D
 Schrodinger Suite 2020-1.
 58 62  0  0  1  0            999 V2000
   -0.4610    1.6566    0.0805 C   0  0  2  0  0  0
   -0.4087   -5.5087   -3.5636 C   0  0  0  0  0  0
   -0.2902   -5.4607   -2.1755 C   0  0  0  0  0  0
   -0.5976   -3.0813   -3.6394 C   0  0  0  0  0  0
   -0.5623   -4.3215   -4.2835 C   0  0  0  0  0  0
   -0.4781   -3.0282   -2.2379 C   0  0  0  0  0  0
   -0.3270   -4.2431   -1.5483 N   0  0  0  0  0  0
   -0.2309   -4.0657   -0.2127 N   0  0  0  0  0  0
   -0.4652   -2.0413   -1.2216 C   0  0  0  0  0  0
   -0.3121   -2.7651   -0.0253 C   0  0  0  0  0  0
   -0.2495   -2.1078    1.3479 C   0  0  0  0  0  0
   -0.7489   -0.6500    1.2060 C   0  0  0  0  0  0
   -0.0681    0.1305    0.0288 C   0  0  1  0  0  0
   -0.6160   -0.5217   -1.2854 C   0  0  0  0  0  0
    1.4101    0.0420    0.0214 N   0  0  0  0  0  0
    2.2718    0.3672    1.0048 C   0  0  0  0  0  0
    3.7234    0.2332    0.6325 C   0  0  0  0  0  0
    1.9469    0.7618    2.1243 O   0  0  0  0  0  0
    4.3648   -1.0203    0.6737 C   0  0  0  0  0  0
    5.7146   -1.1269    0.3379 C   0  0  0  0  0  0
    6.4552   -0.0007   -0.0444 C   0  0  0  0  0  0
    5.8134    1.2419   -0.0884 C   0  0  0  0  0  0
    4.4647    1.3665    0.2458 C   0  0  0  0  0  0
    3.7646    2.9520    0.1676 Cl  0  0  0  0  0  0
    7.8309   -0.1075   -0.3780 N   0  0  0  0  0  0
    8.7722    0.8778   -0.5530 C   0  0  0  0  0  0
    9.9365    0.3644   -0.8532 N   0  0  0  0  0  0
    9.6810   -0.9340   -0.8447 C   0  0  0  0  0  0
    8.4414   -1.2869   -0.5753 N   0  0  0  0  0  0
   10.7522   -1.9560   -1.1545 C   0  0  0  0  0  0
   -0.3776   -6.8471   -4.2778 C   0  0  0  0  0  0
    3.5381   -2.4745    1.1314 Cl  0  0  0  0  0  0
   -1.8657    1.8456    0.1185 O   0  0  0  0  0  0
    0.0845    2.5294   -1.0713 C   0  0  0  0  0  0
   -0.0905    2.0834    1.0136 H   0  0  0  0  0  0
   -0.1707   -6.3372   -1.5544 H   0  0  0  0  0  0
   -0.7163   -2.1749   -4.2145 H   0  0  0  0  0  0
   -0.6567   -4.3541   -5.3596 H   0  0  0  0  0  0
   -0.8644   -2.6415    2.0733 H   0  0  0  0  0  0
    0.7697   -2.1193    1.7313 H   0  0  0  0  0  0
   -1.8362   -0.6280    1.1147 H   0  0  0  0  0  0
   -0.5253   -0.1536    2.1509 H   0  0  0  0  0  0
   -0.0864   -0.1310   -2.1556 H   0  0  0  0  0  0
   -1.6673   -0.2768   -1.4410 H   0  0  0  0  0  0
    1.8050   -0.3336   -0.8284 H   0  0  0  0  0  0
    6.1825   -2.1000    0.3829 H   0  0  0  0  0  0
    6.3519    2.1299   -0.3845 H   0  0  0  0  0  0
    8.5312    1.9241   -0.4410 H   0  0  0  0  0  0
   10.3624   -2.9544   -1.3569 H   0  0  0  0  0  0
   11.5193   -1.9953   -0.3806 H   0  0  0  0  0  0
   11.2950   -1.6654   -2.0547 H   0  0  0  0  0  0
   -0.5614   -6.7474   -5.3485 H   0  0  0  0  0  0
   -1.1389   -7.5100   -3.8652 H   0  0  0  0  0  0
    0.5892   -7.3300   -4.1325 H   0  0  0  0  0  0
   -2.2178    1.3592    0.8675 H   0  0  0  0  0  0
    1.1707    2.4803   -1.1354 H   0  0  0  0  0  0
   -0.1800    3.5781   -0.9295 H   0  0  0  0  0  0
   -0.3140    2.2217   -2.0384 H   0  0  0  0  0  0
  1 13  1  0  0  0
  1 33  1  0  0  0
  1 34  1  0  0  0
  1 35  1  0  0  0
  2  3  2  0  0  0
  2  5  1  0  0  0
  2 31  1  0  0  0
  3  7  1  0  0  0
  3 36  1  0  0  0
  4  6  1  0  0  0
  4  5  2  0  0  0
  4 37  1  0  0  0
  5 38  1  0  0  0
  6  7  1  0  0  0
  6  9  2  0  0  0
  7  8  1  0  0  0
  8 10  2  0  0  0
  9 10  1  0  0  0
  9 14  1  0  0  0
 10 11  1  0  0  0
 11 12  1  0  0  0
 11 39  1  0  0  0
 11 40  1  0  0  0
 12 13  1  0  0  0
 12 41  1  0  0  0
 12 42  1  0  0  0
 13 14  1  0  0  0
 13 15  1  0  0  0
 14 43  1  0  0  0
 14 44  1  0  0  0
 15 16  1  0  0  0
 15 45  1  0  0  0
 16 17  1  0  0  0
 16 18  2  0  0  0
 17 19  2  0  0  0
 17 23  1  0  0  0
 19 20  1  0  0  0
 19 32  1  0  0  0
 20 21  2  0  0  0
 20 46  1  0  0  0
 21 22  1  0  0  0
 21 25  1  0  0  0
 22 23  2  0  0  0
 22 47  1  0  0  0
 23 24  1  0  0  0
 25 26  1  0  0  0
 25 29  1  0  0  0
 26 27  2  0  0  0
 26 48  1  0  0  0
 27 28  1  0  0  0
 28 29  2  0  0  0
 28 30  1  0  0  0
 30 49  1  0  0  0
 30 50  1  0  0  0
 30 51  1  0  0  0
 31 52  1  0  0  0
 31 53  1  0  0  0
 31 54  1  0  0  0
 33 55  1  0  0  0
 34 56  1  0  0  0
 34 57  1  0  0  0
 34 58  1  0  0  0
M  END
> <chembl_id>
CHEMBL3628837

> <chembl_pref_name>
None

> <i_m_ct_stereo_status>
1

> <s_m_source_file>
sdf/actives_sanitized.sdf

> <i_m_source_file_index>
84

> <i_lp_mmshare_version>
49012

> <i_f3d_flags>
0

> <s_epik_input>
W2NIXTFbY0hdYyhbQ0gzXSlbY0hdbihjMTIpbmMzYzJbQ0gyXVtDQEBdKFtDQEhdKFtPSF0pW0NIM10pKFtDSDJdW0NIMl0zKVtOSF1DKD1PKWM0YyhDbClbY0hdYyhbY0hdYzRDbCktbjVbY0hdbmMobjUpW0NIM10=

> <s_epik_cmdline>
J2VwaWtfcHl0aG9uJywgJy1waHQnLCAnMC41JywgJy1waCcsICc3LjUnLCAnLW50JywgJy1tYScsICcyMDAnLCAnLWltYWUnLCAnPGluZmlsZS5tYWU+JywgJy1vbWFlJywgJzxvdXRmaWxlLm1hZT4n

> <r_lp_tautomer_probability>
1

> <r_epik_Ionization_Penalty>
  0.0001

> <r_epik_Ionization_Penalty_Charging>
  0.0000

> <r_epik_Ionization_Penalty_Neutral>
  0.0001

> <r_epik_State_Penalty>
 -0.0000

> <r_epik_Charging_Adjusted_Penalty>
0

> <i_epik_Tot_Q>
0

> <i_epik_Tot_abs_Q>
0

> <s_lp_Force_Field>
OPLS3e

> <r_lp_Energy>
21.732042

> <b_lp_Chiralities_Consistent>
1

> <s_lp_Variant>
sdf/actives_sanitized.sdf:84-1

$$$$
sdf/actives_sanitized.sdf:85
                    3D
 Schrodinger Suite 2020-1.
 57 61  0  0  1  0            999 V2000
   -0.8856    0.9132   -0.5151 C   0  0  0  0  0  0
   -2.3339    0.5609   -0.3137 C   0  0  0  0  0  0
   -2.9922   -0.3048   -1.2085 C   0  0  0  0  0  0
   -4.3346   -0.6281   -1.0092 C   0  0  0  0  0  0
   -5.0499   -0.1016    0.0743 C   0  0  0  0  0  0
   -4.3942    0.7630    0.9580 C   0  0  0  0  0  0
   -3.0517    1.0952    0.7737 C   0  0  0  0  0  0
   -0.5633    1.9091   -1.1630 O   0  0  0  0  0  0
   -0.0215    0.0685    0.0730 N   0  0  0  0  0  0
   -6.4133   -0.4357    0.2818 N   0  0  0  0  0  0
   -7.1694   -1.0207   -0.6605 N   0  0  0  0  0  0
   -8.3321   -1.1595   -0.0582 C   0  0  0  0  0  0
   -8.4104   -0.7107    1.1844 N   0  0  0  0  0  0
   -7.2002   -0.2630    1.3942 C   0  0  0  0  0  0
   -9.5224   -1.7737   -0.7609 C   0  0  0  0  0  0
    1.4370    0.2022    0.0585 C   0  0  0  0  0  0
    2.1235   -0.0126   -1.3236 C   0  0  1  0  0  0
    3.6518   -0.0310   -1.2182 C   0  0  0  0  0  0
    4.4162    0.9036   -1.9291 C   0  0  0  0  0  0
    5.8082    0.8998   -1.8341 C   0  0  0  0  0  0
    6.4496   -0.0373   -1.0251 C   0  0  0  0  0  0
    5.6990   -0.9706   -0.3112 C   0  0  0  0  0  0
    4.3071   -0.9674   -0.4066 C   0  0  0  0  0  0
    6.5353    1.8056   -2.5262 F   0  0  0  0  0  0
    0.0198   -5.2891   -3.2597 C   0  0  0  0  0  0
    0.0580   -4.4335   -4.2508 N   0  0  0  0  0  0
    0.5597   -3.2826   -3.6977 C   0  0  0  0  0  0
    0.8351   -3.4575   -2.3186 C   0  0  0  0  0  0
    0.4751   -4.7623   -2.0742 N   0  0  0  0  0  0
    1.3525   -2.4349   -1.5194 C   0  0  0  0  0  0
    1.5913   -1.1987   -2.1399 C   0  0  0  0  0  0
    1.3190   -1.0141   -3.5019 C   0  0  0  0  0  0
    0.8098   -2.0404   -4.2975 C   0  0  0  0  0  0
   -0.4692   -6.7137   -3.3770 C   0  0  0  0  0  0
    0.5596   -1.8297   -5.6103 F   0  0  0  0  0  0
   -2.3257    2.1718    1.9247 Cl  0  0  0  0  0  0
   -2.1930   -1.0081   -2.5775 Cl  0  0  0  0  0  0
   -4.8143   -1.2990   -1.7077 H   0  0  0  0  0  0
   -4.9193    1.1934    1.7978 H   0  0  0  0  0  0
   -0.3926   -0.7274    0.5709 H   0  0  0  0  0  0
   -6.8172    0.1834    2.2996 H   0  0  0  0  0  0
  -10.4727   -1.5812   -0.2613 H   0  0  0  0  0  0
   -9.3917   -2.8415   -0.9384 H   0  0  0  0  0  0
   -9.6283   -1.3445   -1.7579 H   0  0  0  0  0  0
    1.8107   -0.5270    0.7773 H   0  0  0  0  0  0
    1.7168    1.1750    0.4681 H   0  0  0  0  0  0
    1.8749    0.8893   -1.8869 H   0  0  0  0  0  0
    3.9342    1.6363   -2.5601 H   0  0  0  0  0  0
    7.5272   -0.0407   -0.9513 H   0  0  0  0  0  0
    6.1957   -1.6967    0.3155 H   0  0  0  0  0  0
    3.7421   -1.6998    0.1507 H   0  0  0  0  0  0
    1.5519   -2.5882   -0.4694 H   0  0  0  0  0  0
    1.5051   -0.0527   -3.9588 H   0  0  0  0  0  0
   -0.8134   -6.9517   -4.3843 H   0  0  0  0  0  0
   -1.3037   -6.9074   -2.7026 H   0  0  0  0  0  0
    0.3164   -7.4289   -3.1325 H   0  0  0  0  0  0
    0.5138   -5.2831   -1.2101 H   0  0  0  0  0  0
  1  2  1  0  0  0
  1  8  2  0  0  0
  1  9  1  0  0  0
  2  3  2  0  0  0
  2  7  1  0  0  0
  3  4  1  0  0  0
  3 37  1  0  0  0
  4  5  2  0  0  0
  4 38  1  0  0  0
  5  6  1  0  0  0
  5 10  1  0  0  0
  6  7  2  0  0  0
  6 39  1  0  0  0
  7 36  1  0  0  0
  9 16  1  0  0  0
  9 40  1  0  0  0
 10 11  1  0  0  0
 10 14  1  0  0  0
 11 12  2  0  0  0
 12 13  1  0  0  0
 12 15  1  0  0  0
 13 14  2  0  0  0
 14 41  1  0  0  0
 15 42  1  0  0  0
 15 43  1  0  0  0
 15 44  1  0  0  0
 16 17  1  0  0  0
 16 45  1  0  0  0
 16 46  1  0  0  0
 17 18  1  0  0  0
 17 31  1  0  0  0
 17 47  1  0  0  0
 18 19  2  0  0  0
 18 23  1  0  0  0
 19 20  1  0  0  0
 19 48  1  0  0  0
 20 21  2  0  0  0
 20 24  1  0  0  0
 21 22  1  0  0  0
 21 49  1  0  0  0
 22 23  2  0  0  0
 22 50  1  0  0  0
 23 51  1  0  0  0
 25 26  2  0  0  0
 25 29  1  0  0  0
 25 34  1  0  0  0
 26 27  1  0  0  0
 27 28  2  0  0  0
 27 33  1  0  0  0
 28 29  1  0  0  0
 28 30  1  0  0  0
 29 57  1  0  0  0
 30 31  2  0  0  0
 30 52  1  0  0  0
 31 32  1  0  0  0
 32 33  2  0  0  0
 32 53  1  0  0  0
 33 35  1  0  0  0
 34 54  1  0  0  0
 34 55  1  0  0  0
 34 56  1  0  0  0
M  END
> <chembl_id>
CHEMBL3775211

> <chembl_pref_name>
None

> <i_m_ct_stereo_status>
1

> <s_m_source_file>
sdf/actives_sanitized.sdf

> <i_m_source_file_index>
85

> <i_lp_mmshare_version>
49012

> <i_f3d_flags>
0

> <s_epik_input>
W2NIXTFbY0hdW2NIXWMoRilbY0hdYzFbQ0BASF0oYyhbY0hdYzJGKVtjSF1jKGMyMyluYyhbbkhdMylbQ0gzXSlbQ0gyXVtOSF1DKD1PKWM0YyhDbClbY0hdYyhbY0hdYzRDbCktbjVuYyhbQ0gzXSluW2NIXTU=

> <s_epik_cmdline>
J2VwaWtfcHl0aG9uJywgJy1waHQnLCAnMC41JywgJy1waCcsICc3LjUnLCAnLW50JywgJy1tYScsICcyMDAnLCAnLWltYWUnLCAnPGluZmlsZS5tYWU+JywgJy1vbWFlJywgJzxvdXRmaWxlLm1hZT4n

> <r_lp_tautomer_probability>
1

> <r_epik_Ionization_Penalty>
  0.0057

> <r_epik_Ionization_Penalty_Charging>
  0.0000

> <r_epik_Ionization_Penalty_Neutral>
  0.0057

> <r_epik_State_Penalty>
 -0.0000

> <r_epik_Charging_Adjusted_Penalty>
0

> <i_epik_Tot_Q>
0

> <i_epik_Tot_abs_Q>
0

> <s_lp_Force_Field>
OPLS3e

> <r_lp_Energy>
32.570238

> <b_lp_Chiralities_Consistent>
1

> <s_lp_Variant>
sdf/actives_sanitized.sdf:85-1

$$$$
sdf/actives_sanitized.sdf:86
                    3D
 Schrodinger Suite 2020-1.
 54 57  0  0  1  0            999 V2000
   -0.1403    0.2138   -0.2412 O   0  0  0  0  0  0
    0.3451    5.1602    0.1722 C   0  0  0  0  0  0
    1.4669    5.1924    1.0061 C   0  0  0  0  0  0
    2.2698    6.3235    1.1187 C   0  0  0  0  0  0
    0.0125    6.2984   -0.5741 C   0  0  0  0  0  0
    0.7956    7.4619   -0.4907 C   0  0  0  0  0  0
    1.9292    7.4550    0.3675 C   0  0  0  0  0  0
    2.7711    8.9950    0.3316 S   0  0  0  0  0  0
    1.6167    9.6411   -0.8295 C   0  0  0  0  0  0
    0.6397    8.7108   -1.1530 C   0  0  0  0  0  0
    1.7238   10.9372   -1.2983 C   0  0  0  0  0  0
    2.9277   11.4593   -1.4957 N   0  0  0  0  0  0
    0.6113   11.6171   -1.5444 N   0  3  0  0  0  0
   -0.4866    3.9274    0.0715 C   0  0  0  0  0  0
   -1.8853    4.0040    0.0534 C   0  0  0  0  0  0
   -2.0480    1.6060   -0.1476 C   0  0  0  0  0  0
   -0.6574    1.4929   -0.1338 C   0  0  0  0  0  0
   -2.6619    2.8523   -0.0528 C   0  0  0  0  0  0
    0.1125    2.6627   -0.0161 C   0  0  0  0  0  0
    1.2765   -0.0139   -0.2497 C   0  0  2  0  0  0
    1.9183    0.4966   -1.5431 C   0  0  0  0  0  0
    3.1979    1.0586   -1.5012 C   0  0  0  0  0  0
    3.7875    1.5403   -2.6667 C   0  0  0  0  0  0
    3.0983    1.4582   -3.8751 C   0  0  0  0  0  0
    1.8243    0.8954   -3.9265 C   0  0  0  0  0  0
    1.2343    0.4141   -2.7612 C   0  0  0  0  0  0
    3.8287    2.0581   -5.3193 Cl  0  0  0  0  0  0
    1.5228   -1.5307   -0.0812 C   0  0  0  0  0  0
    1.0501   -2.1290    1.2511 C   0  0  0  0  0  0
    1.1618   -3.4725    1.2600 O   0  0  0  0  0  0
    0.6229   -1.4330    2.1758 O   0  0  0  0  0  0
    0.7659   -4.2224    2.3993 C   0  0  0  0  0  0
    1.7251    4.3201    1.5894 H   0  0  0  0  0  0
    3.1314    6.3230    1.7704 H   0  0  0  0  0  0
   -0.8483    6.2797   -1.2266 H   0  0  0  0  0  0
   -0.1636    8.9107   -1.8465 H   0  0  0  0  0  0
    3.0171   12.4035   -1.8407 H   0  0  0  0  0  0
    3.7503   10.9077   -1.2990 H   0  0  0  0  0  0
    0.6656   12.5669   -1.8818 H   0  0  0  0  0  0
   -2.3799    4.9618    0.1266 H   0  0  0  0  0  0
   -2.6579    0.7184   -0.2337 H   0  0  0  0  0  0
   -3.7394    2.9261   -0.0634 H   0  0  0  0  0  0
    1.1896    2.6055   -0.0061 H   0  0  0  0  0  0
    1.7208    0.5051    0.6033 H   0  0  0  0  0  0
    3.7354    1.1266   -0.5665 H   0  0  0  0  0  0
    4.7751    1.9765   -2.6304 H   0  0  0  0  0  0
    1.2931    0.8316   -4.8650 H   0  0  0  0  0  0
    0.2462   -0.0204   -2.8065 H   0  0  0  0  0  0
    1.0353   -2.0697   -0.8942 H   0  0  0  0  0  0
    2.5908   -1.7320   -0.1685 H   0  0  0  0  0  0
    0.9424   -5.2836    2.2234 H   0  0  0  0  0  0
   -0.2961   -4.0850    2.6082 H   0  0  0  0  0  0
    1.3344   -3.9255    3.2819 H   0  0  0  0  0  0
   -0.2858   11.1854   -1.3772 H   0  0  0  0  0  0
  1 17  1  0  0  0
  1 20  1  0  0  0
  2  3  2  0  0  0
  2  5  1  0  0  0
  2 14  1  0  0  0
  3  4  1  0  0  0
  3 33  1  0  0  0
  4  7  2  0  0  0
  4 34  1  0  0  0
  5  6  2  0  0  0
  5 35  1  0  0  0
  6 10  1  0  0  0
  6  7  1  0  0  0
  7  8  1  0  0  0
  8  9  1  0  0  0
  9 10  2  0  0  0
  9 11  1  0  0  0
 10 36  1  0  0  0
 11 12  1  0  0  0
 11 13  2  0  0  0
 12 37  1  0  0  0
 12 38  1  0  0  0
 13 39  1  0  0  0
 13 54  1  0  0  0
 14 19  2  0  0  0
 14 15  1  0  0  0
 15 18  2  0  0  0
 15 40  1  0  0  0
 16 18  1  0  0  0
 16 17  2  0  0  0
 16 41  1  0  0  0
 17 19  1  0  0  0
 18 42  1  0  0  0
 19 43  1  0  0  0
 20 21  1  0  0  0
 20 28  1  0  0  0
 20 44  1  0  0  0
 21 22  2  0  0  0
 21 26  1  0  0  0
 22 23  1  0  0  0
 22 45  1  0  0  0
 23 24  2  0  0  0
 23 46  1  0  0  0
 24 25  1  0  0  0
 24 27  1  0  0  0
 25 26  2  0  0  0
 25 47  1  0  0  0
 26 48  1  0  0  0
 28 29  1  0  0  0
 28 49  1  0  0  0
 28 50  1  0  0  0
 29 30  1  0  0  0
 29 31  2  0  0  0
 30 32  1  0  0  0
 32 51  1  0  0  0
 32 52  1  0  0  0
 32 53  1  0  0  0
M  CHG  1  13   1
M  END
> <chembl_id>
CHEMBL596740

> <chembl_pref_name>
None

> <s_m_source_file>
sdf/actives_sanitized.sdf

> <i_m_source_file_index>
86

> <i_lp_mmshare_version>
49012

> <i_m_ct_stereo_status>
1

> <i_f3d_flags>
0

> <s_epik_input>
W2NIXTFbY0hdYyhDbClbY0hdW2NIXWMxW0NASF0oW0NIMl1DKD1PKU9bQ0gzXSlPYyhbY0hdMilbY0hdW2NIXVtjSF1jMi1jKFtjSF0zKVtjSF1bY0hdYyhjMzQpc2MoW2NIXTQpL0MoW05IMl0pPU4vW0hd

> <s_epik_cmdline>
J2VwaWtfcHl0aG9uJywgJy1waHQnLCAnMC41JywgJy1waCcsICc3LjUnLCAnLW50JywgJy1tYScsICcyMDAnLCAnLWltYWUnLCAnPGluZmlsZS5tYWU+JywgJy1vbWFlJywgJzxvdXRmaWxlLm1hZT4n

> <r_lp_tautomer_probability>
1

> <r_epik_Ionization_Penalty>
  0.0095

> <r_epik_Ionization_Penalty_Charging>
  0.0095

> <r_epik_Ionization_Penalty_Neutral>
  0.0000

> <r_epik_State_Penalty>
 -0.0000

> <r_epik_Charging_Adjusted_Penalty>
0.00945881282357717

> <i_epik_Tot_Q>
1

> <i_epik_Tot_abs_Q>
1

> <s_epik_Chemistry_Notes>
This compound has an ester and may undergo hydrolysis at high or low pH. This compound has an imine and may undergo hydrolysis.

> <s_lp_Force_Field>
OPLS3e

> <r_lp_Energy>
26.133002

> <b_lp_Chiralities_Consistent>
1

> <s_lp_Variant>
sdf/actives_sanitized.sdf:86-1

$$$$
sdf/actives_sanitized.sdf:87
                    3D
 Schrodinger Suite 2020-1.
 54 57  0  0  1  0            999 V2000
    0.0639    2.6810    0.0402 C   0  0  0  0  0  0
   -0.6686    3.8606    0.1143 C   0  0  0  0  0  0
   -2.0596    3.8433    0.1457 C   0  0  0  0  0  0
   -0.5753    1.4337   -0.0057 C   0  0  0  0  0  0
   -1.9834    1.3786    0.0258 C   0  0  0  0  0  0
   -2.7103    2.6023    0.1031 C   0  0  0  0  0  0
   -4.4428    2.3217    0.1375 S   0  0  0  0  0  0
   -4.2020    0.5815    0.0476 C   0  0  0  0  0  0
   -2.8560    0.2524   -0.0015 C   0  0  0  0  0  0
   -5.2744   -0.2899    0.0527 C   0  0  0  0  0  0
   -6.3967    0.0590   -0.5636 N   0  0  0  0  0  0
   -5.1417   -1.4561    0.6719 N   0  3  0  0  0  0
    0.0514    0.2035   -0.0885 O   0  0  0  0  0  0
    1.4773    0.0964   -0.0028 C   0  0  2  0  0  0
    1.8836   -1.3261   -0.4598 C   0  0  0  0  0  0
    1.9843    0.4290    1.4068 C   0  0  0  0  0  0
    1.2082    0.1411    2.5362 C   0  0  0  0  0  0
    1.6821    0.4539    3.8073 C   0  0  0  0  0  0
    2.9303    1.0556    3.9489 C   0  0  0  0  0  0
    3.7095    1.3456    2.8312 C   0  0  0  0  0  0
    3.2364    1.0316    1.5600 C   0  0  0  0  0  0
    1.3945   -2.4117    0.3960 N   0  0  0  0  0  0
    0.1495   -2.9154    0.3731 C   0  0  0  0  0  0
   -0.0970   -3.6327    1.4878 N   0  0  0  0  0  0
   -0.6488   -2.7077   -0.5420 O   0  0  0  0  0  0
   -1.2896   -4.2587    1.8988 C   0  0  0  0  0  0
   -1.1707   -5.1648    2.9566 C   0  0  0  0  0  0
   -3.5403   -5.5850    2.8714 C   0  0  0  0  0  0
   -3.6748   -4.6767    1.8247 C   0  0  0  0  0  0
   -2.2939   -5.8303    3.4408 C   0  0  0  0  0  0
   -2.5536   -4.0099    1.3374 C   0  0  0  0  0  0
    1.1405    2.7533    0.0191 H   0  0  0  0  0  0
   -0.1476    4.8063    0.1477 H   0  0  0  0  0  0
   -2.6188    4.7661    0.2033 H   0  0  0  0  0  0
   -2.4968   -0.7647   -0.0574 H   0  0  0  0  0  0
   -7.1849   -0.5712   -0.5711 H   0  0  0  0  0  0
   -6.4537    0.9542   -1.0271 H   0  0  0  0  0  0
   -5.9112   -2.1090    0.6859 H   0  0  0  0  0  0
    1.9144    0.7955   -0.7186 H   0  0  0  0  0  0
    1.5588   -1.4925   -1.4891 H   0  0  0  0  0  0
    2.9716   -1.3989   -0.4773 H   0  0  0  0  0  0
    0.2401   -0.3272    2.4315 H   0  0  0  0  0  0
    1.0852    0.2310    4.6794 H   0  0  0  0  0  0
    3.2979    1.2988    4.9350 H   0  0  0  0  0  0
    4.6767    1.8116    2.9498 H   0  0  0  0  0  0
    3.8439    1.2577    0.6956 H   0  0  0  0  0  0
    2.0508   -2.7756    1.0712 H   0  0  0  0  0  0
    0.6854   -3.7800    2.1082 H   0  0  0  0  0  0
   -0.2081   -5.3633    3.4066 H   0  0  0  0  0  0
   -4.4113   -6.1019    3.2468 H   0  0  0  0  0  0
   -4.6469   -4.4883    1.3935 H   0  0  0  0  0  0
   -2.1982   -6.5341    4.2546 H   0  0  0  0  0  0
   -2.6978   -3.3036    0.5359 H   0  0  0  0  0  0
   -4.2722   -1.6804    1.1339 H   0  0  0  0  0  0
  1  4  2  0  0  0
  1  2  1  0  0  0
  1 32  1  0  0  0
  2  3  2  0  0  0
  2 33  1  0  0  0
  3  6  1  0  0  0
  3 34  1  0  0  0
  4  5  1  0  0  0
  4 13  1  0  0  0
  5  9  1  0  0  0
  5  6  2  0  0  0
  6  7  1  0  0  0
  7  8  1  0  0  0
  8  9  2  0  0  0
  8 10  1  0  0  0
  9 35  1  0  0  0
 10 11  1  0  0  0
 10 12  2  0  0  0
 11 36  1  0  0  0
 11 37  1  0  0  0
 12 38  1  0  0  0
 12 54  1  0  0  0
 13 14  1  0  0  0
 14 15  1  0  0  0
 14 16  1  0  0  0
 14 39  1  0  0  0
 15 22  1  0  0  0
 15 40  1  0  0  0
 15 41  1  0  0  0
 16 17  2  0  0  0
 16 21  1  0  0  0
 17 18  1  0  0  0
 17 42  1  0  0  0
 18 19  2  0  0  0
 18 43  1  0  0  0
 19 20  1  0  0  0
 19 44  1  0  0  0
 20 21  2  0  0  0
 20 45  1  0  0  0
 21 46  1  0  0  0
 22 23  1  0  0  0
 22 47  1  0  0  0
 23 24  1  0  0  0
 23 25  2  0  0  0
 24 26  1  0  0  0
 24 48  1  0  0  0
 26 27  2  0  0  0
 26 31  1  0  0  0
 27 30  1  0  0  0
 27 49  1  0  0  0
 28 29  1  0  0  0
 28 30  2  0  0  0
 28 50  1  0  0  0
 29 31  2  0  0  0
 29 51  1  0  0  0
 30 52  1  0  0  0
 31 53  1  0  0  0
M  CHG  1  12   1
M  END
> <chembl_id>
CHEMBL597570

> <chembl_pref_name>
None

> <s_m_source_file>
sdf/actives_sanitized.sdf

> <i_m_source_file_index>
87

> <i_lp_mmshare_version>
49012

> <i_m_ct_stereo_status>
1

> <i_f3d_flags>
0

> <s_epik_input>
W0hdXE49QyhbTkgyXSlcYyhbY0hdMSlzYyhjMTIpW2NIXVtjSF1bY0hdYzJPW0NAQEhdKGMzW2NIXVtjSF1bY0hdW2NIXVtjSF0zKVtDSDJdW05IXUMoPU8pW05IXWM0W2NIXVtjSF1bY0hdW2NIXVtjSF00

> <s_epik_cmdline>
J2VwaWtfcHl0aG9uJywgJy1waHQnLCAnMC41JywgJy1waCcsICc3LjUnLCAnLW50JywgJy1tYScsICcyMDAnLCAnLWltYWUnLCAnPGluZmlsZS5tYWU+JywgJy1vbWFlJywgJzxvdXRmaWxlLm1hZT4n

> <r_lp_tautomer_probability>
1

> <r_epik_Ionization_Penalty>
  0.0095

> <r_epik_Ionization_Penalty_Charging>
  0.0095

> <r_epik_Ionization_Penalty_Neutral>
  0.0000

> <r_epik_State_Penalty>
 -0.0000

> <r_epik_Charging_Adjusted_Penalty>
0.00945881282357717

> <i_epik_Tot_Q>
1

> <i_epik_Tot_abs_Q>
1

> <s_epik_Chemistry_Notes>
This compound has an imine and may undergo hydrolysis.

> <s_lp_Force_Field>
OPLS3e

> <r_lp_Energy>
34.963611

> <b_lp_Chiralities_Consistent>
1

> <s_lp_Variant>
sdf/actives_sanitized.sdf:87-1

$$$$
sdf/actives_sanitized.sdf:88
                    3D
 Schrodinger Suite 2020-1.
 53 56  0  0  1  0            999 V2000
    0.1661    2.5654   -0.2813 C   0  0  0  0  0  0
   -0.5415    3.7435   -0.4926 C   0  0  0  0  0  0
   -1.9314    3.7469   -0.5557 C   0  0  0  0  0  0
   -0.4974    1.3399   -0.1223 C   0  0  0  0  0  0
   -1.9057    1.3067   -0.1825 C   0  0  0  0  0  0
   -2.6069    2.5284   -0.4005 C   0  0  0  0  0  0
   -4.3440    2.2767   -0.4412 S   0  0  0  0  0  0
   -4.1397    0.5522   -0.1591 C   0  0  0  0  0  0
   -2.8010    0.2056   -0.0546 C   0  0  0  0  0  0
   -5.2295   -0.2949   -0.0845 C   0  0  0  0  0  0
   -6.3547    0.1425    0.4660 N   0  0  0  0  0  0
   -5.1099   -1.5279   -0.5599 N   0  3  0  0  0  0
    0.1053    0.1126    0.0908 O   0  0  0  0  0  0
    1.5266    0.0142    0.2429 C   0  0  2  0  0  0
    1.8994   -1.4745    0.1483 C   0  0  0  0  0  0
    1.9919    0.6127    1.5730 C   0  0  0  0  0  0
    1.1850    0.5324    2.7140 C   0  0  0  0  0  0
    1.6185    1.0854    3.9157 C   0  0  0  0  0  0
    2.8593    1.7155    3.9771 C   0  0  0  0  0  0
    3.6705    1.7976    2.8476 C   0  0  0  0  0  0
    3.2364    1.2462    1.6450 C   0  0  0  0  0  0
    1.6029   -1.9696   -1.1534 O   0  0  0  0  0  0
    1.7884   -3.2692   -1.4592 C   0  0  0  0  0  0
    1.4037   -3.4649   -2.7823 N   0  0  0  0  0  0
    2.2234   -4.1116   -0.6713 O   0  0  0  0  0  0
    1.4152   -4.6381   -3.5567 C   0  0  0  0  0  0
    0.9362   -4.5137   -4.8641 C   0  0  0  0  0  0
    0.9087   -5.6195   -5.7096 C   0  0  0  0  0  0
    1.3612   -6.8527   -5.2476 C   0  0  0  0  0  0
    1.8415   -6.9898   -3.9477 C   0  0  0  0  0  0
    1.8707   -5.8857   -3.0993 C   0  0  0  0  0  0
    1.2430    2.6225   -0.2411 H   0  0  0  0  0  0
   -0.0019    4.6721   -0.6095 H   0  0  0  0  0  0
   -2.4709    4.6685   -0.7206 H   0  0  0  0  0  0
   -2.4627   -0.8059    0.1155 H   0  0  0  0  0  0
   -7.1570   -0.4671    0.5266 H   0  0  0  0  0  0
   -6.4021    1.0857    0.8231 H   0  0  0  0  0  0
   -5.8927   -2.1635   -0.5135 H   0  0  0  0  0  0
    2.0118    0.5363   -0.5849 H   0  0  0  0  0  0
    2.9648   -1.6045    0.3466 H   0  0  0  0  0  0
    1.3555   -2.0453    0.9032 H   0  0  0  0  0  0
    0.2231    0.0423    2.6728 H   0  0  0  0  0  0
    0.9960    1.0251    4.7963 H   0  0  0  0  0  0
    3.1959    2.1433    4.9101 H   0  0  0  0  0  0
    4.6321    2.2861    2.9047 H   0  0  0  0  0  0
    3.8687    1.3118    0.7713 H   0  0  0  0  0  0
    1.0647   -2.6447   -3.2632 H   0  0  0  0  0  0
    0.5826   -3.5610   -5.2331 H   0  0  0  0  0  0
    0.5385   -5.5211   -6.7197 H   0  0  0  0  0  0
    1.3401   -7.7108   -5.9034 H   0  0  0  0  0  0
    2.1918   -7.9501   -3.5980 H   0  0  0  0  0  0
    2.2510   -6.0305   -2.1012 H   0  0  0  0  0  0
   -4.2373   -1.8227   -0.9732 H   0  0  0  0  0  0
  1  4  2  0  0  0
  1  2  1  0  0  0
  1 32  1  0  0  0
  2  3  2  0  0  0
  2 33  1  0  0  0
  3  6  1  0  0  0
  3 34  1  0  0  0
  4  5  1  0  0  0
  4 13  1  0  0  0
  5  9  1  0  0  0
  5  6  2  0  0  0
  6  7  1  0  0  0
  7  8  1  0  0  0
  8  9  2  0  0  0
  8 10  1  0  0  0
  9 35  1  0  0  0
 10 11  1  0  0  0
 10 12  2  0  0  0
 11 36  1  0  0  0
 11 37  1  0  0  0
 12 38  1  0  0  0
 12 53  1  0  0  0
 13 14  1  0  0  0
 14 15  1  0  0  0
 14 16  1  0  0  0
 14 39  1  0  0  0
 15 22  1  0  0  0
 15 40  1  0  0  0
 15 41  1  0  0  0
 16 17  2  0  0  0
 16 21  1  0  0  0
 17 18  1  0  0  0
 17 42  1  0  0  0
 18 19  2  0  0  0
 18 43  1  0  0  0
 19 20  1  0  0  0
 19 44  1  0  0  0
 20 21  2  0  0  0
 20 45  1  0  0  0
 21 46  1  0  0  0
 22 23  1  0  0  0
 23 24  1  0  0  0
 23 25  2  0  0  0
 24 26  1  0  0  0
 24 47  1  0  0  0
 26 27  2  0  0  0
 26 31  1  0  0  0
 27 28  1  0  0  0
 27 48  1  0  0  0
 28 29  2  0  0  0
 28 49  1  0  0  0
 29 30  1  0  0  0
 29 50  1  0  0  0
 30 31  2  0  0  0
 30 51  1  0  0  0
 31 52  1  0  0  0
M  CHG  1  12   1
M  END
> <chembl_id>
CHEMBL598400

> <chembl_pref_name>
None

> <s_m_source_file>
sdf/actives_sanitized.sdf

> <i_m_source_file_index>
88

> <i_lp_mmshare_version>
49012

> <i_m_ct_stereo_status>
1

> <i_f3d_flags>
0

> <s_epik_input>
W0hdXE49QyhbTkgyXSlcYyhbY0hdMSlzYyhjMTIpW2NIXVtjSF1bY0hdYzJPW0NAQEhdKGMzW2NIXVtjSF1bY0hdW2NIXVtjSF0zKVtDSDJdT0MoPU8pW05IXWM0W2NIXVtjSF1bY0hdW2NIXVtjSF00

> <s_epik_cmdline>
J2VwaWtfcHl0aG9uJywgJy1waHQnLCAnMC41JywgJy1waCcsICc3LjUnLCAnLW50JywgJy1tYScsICcyMDAnLCAnLWltYWUnLCAnPGluZmlsZS5tYWU+JywgJy1vbWFlJywgJzxvdXRmaWxlLm1hZT4n

> <r_lp_tautomer_probability>
1

> <r_epik_Ionization_Penalty>
  0.0095

> <r_epik_Ionization_Penalty_Charging>
  0.0095

> <r_epik_Ionization_Penalty_Neutral>
  0.0000

> <r_epik_State_Penalty>
 -0.0000

> <r_epik_Charging_Adjusted_Penalty>
0.00945881282357717

> <i_epik_Tot_Q>
1

> <i_epik_Tot_abs_Q>
1

> <s_epik_Chemistry_Notes>
This compound has an ester and may undergo hydrolysis at high or low pH. This compound has an imine and may undergo hydrolysis.

> <s_lp_Force_Field>
OPLS3e

> <r_lp_Energy>
36.5651

> <b_lp_Chiralities_Consistent>
1

> <s_lp_Variant>
sdf/actives_sanitized.sdf:88-1

$$$$
sdf/actives_sanitized.sdf:89
                    3D
 Schrodinger Suite 2020-1.
 73 78  0  0  1  0            999 V2000
   -1.2460    3.3824   -2.9409 C   0  0  0  0  0  0
   -2.6177    2.7881   -2.5522 C   0  0  2  0  0  0
   -3.6648    3.0628   -3.6898 C   0  0  0  0  0  0
   -4.9484    2.1859   -3.7521 C   0  0  0  0  0  0
   -6.0893    2.5548   -2.7639 C   0  0  0  0  0  0
   -6.9582    1.3550   -2.2413 C   0  0  2  0  0  0
   -8.3986    1.6983   -2.1145 N   0  0  0  0  0  0
   -9.3701    0.7496   -2.7249 C   0  0  0  0  0  0
  -10.7356    1.4225   -3.0252 C   0  0  0  0  0  0
  -11.1917    2.1796   -1.7886 C   0  0  0  0  0  0
  -10.2472    2.7828   -1.0379 C   0  0  0  0  0  0
   -8.8185    2.6867   -1.2529 C   0  0  0  0  0  0
   -8.0604    3.4845   -0.6997 O   0  0  0  0  0  0
  -12.6270    2.4952   -1.5743 C   0  0  0  0  0  0
  -13.4327    2.9643   -2.6266 C   0  0  0  0  0  0
  -12.9178    3.1654   -3.8621 F   0  0  0  0  0  0
  -14.7807    3.2524   -2.4145 C   0  0  0  0  0  0
  -15.3463    3.0769   -1.1550 C   0  0  0  0  0  0
  -14.5647    2.6100   -0.1005 C   0  0  0  0  0  0
  -15.2829    2.3902    1.4558 Cl  0  0  0  0  0  0
  -13.2126    2.3195   -0.3070 C   0  0  0  0  0  0
  -12.4730    1.8504    0.7274 F   0  0  0  0  0  0
   -6.3428    0.6522   -1.0051 C   0  0  0  0  0  0
   -4.9592    0.5741   -0.8759 C   0  0  0  0  0  0
   -4.3680    0.1323    0.3018 C   0  0  0  0  0  0
   -5.2066   -0.3532    1.3120 C   0  0  0  0  0  0
   -6.5905   -0.3245    1.1047 C   0  0  0  0  0  0
   -7.1625    0.1787   -0.0231 N   0  0  0  0  0  0
   -2.8866    0.2211    0.4202 C   0  0  0  0  0  0
   -2.1509   -0.9265    0.7328 C   0  0  0  0  0  0
   -0.7577   -0.8978    0.7734 C   0  0  0  0  0  0
   -0.0630    0.2906    0.5144 C   0  0  0  0  0  0
    1.3394    0.3844    0.5266 N   0  0  0  0  0  0
    2.2477   -0.4923    1.0693 C   0  0  0  0  0  0
    1.8677   -1.3197    2.0771 O   0  0  0  0  0  0
    3.0253   -1.9578    2.3803 C   0  0  0  0  0  0
    3.0160   -2.9965    3.4750 C   0  0  0  0  0  0
    4.0355   -1.5570    1.6495 N   0  0  0  0  0  0
    3.5260   -0.5782    0.8001 N   0  0  0  0  0  0
   -0.7880    1.4432    0.2062 C   0  0  0  0  0  0
   -2.1857    1.4212    0.1574 C   0  0  0  0  0  0
   -2.8621    2.6417   -0.0218 N   0  0  0  0  0  0
   -3.0392    3.3442   -1.1648 C   0  0  0  0  0  0
   -3.5525    4.4606   -1.1055 O   0  0  0  0  0  0
   -0.4812    3.1656   -2.1946 H   0  0  0  0  0  0
   -1.2930    4.4669   -3.0534 H   0  0  0  0  0  0
   -0.8898    2.9700   -3.8856 H   0  0  0  0  0  0
   -2.4713    1.7101   -2.4866 H   0  0  0  0  0  0
   -3.9413    4.1185   -3.7116 H   0  0  0  0  0  0
   -3.1570    2.8999   -4.6419 H   0  0  0  0  0  0
   -5.3622    2.2714   -4.7582 H   0  0  0  0  0  0
   -4.6730    1.1342   -3.6861 H   0  0  0  0  0  0
   -5.6936    3.0977   -1.9079 H   0  0  0  0  0  0
   -6.7264    3.2840   -3.2677 H   0  0  0  0  0  0
   -6.9018    0.5975   -3.0239 H   0  0  0  0  0  0
   -8.9458    0.1725   -3.5469 H   0  0  0  0  0  0
   -9.5862    0.0201   -1.9422 H   0  0  0  0  0  0
  -10.5933    2.1201   -3.8516 H   0  0  0  0  0  0
  -11.4753    0.6846   -3.3374 H   0  0  0  0  0  0
  -10.5603    3.4140   -0.2179 H   0  0  0  0  0  0
  -15.3892    3.6166   -3.2293 H   0  0  0  0  0  0
  -16.3911    3.3033   -0.9991 H   0  0  0  0  0  0
   -4.3137    0.9073   -1.6592 H   0  0  0  0  0  0
   -4.8000   -0.7263    2.2407 H   0  0  0  0  0  0
   -7.2673   -0.6863    1.8646 H   0  0  0  0  0  0
   -2.6612   -1.8604    0.9208 H   0  0  0  0  0  0
   -0.2342   -1.8166    0.9888 H   0  0  0  0  0  0
    1.6727    1.2759    0.1902 H   0  0  0  0  0  0
    3.9965   -3.4522    3.6169 H   0  0  0  0  0  0
    2.3158   -3.8020    3.2544 H   0  0  0  0  0  0
    2.7208   -2.5646    4.4314 H   0  0  0  0  0  0
   -0.2633    2.3722    0.0304 H   0  0  0  0  0  0
   -3.2720    3.0308    0.8150 H   0  0  0  0  0  0
  1  2  1  0  0  0
  1 45  1  0  0  0
  1 46  1  0  0  0
  1 47  1  0  0  0
  2  3  1  0  0  0
  2 43  1  0  0  0
  2 48  1  0  0  0
  3  4  1  0  0  0
  3 49  1  0  0  0
  3 50  1  0  0  0
  4  5  1  0  0  0
  4 51  1  0  0  0
  4 52  1  0  0  0
  5  6  1  0  0  0
  5 53  1  0  0  0
  5 54  1  0  0  0
  6  7  1  0  0  0
  6 23  1  0  0  0
  6 55  1  0  0  0
  7  8  1  0  0  0
  7 12  1  0  0  0
  8  9  1  0  0  0
  8 56  1  0  0  0
  8 57  1  0  0  0
  9 10  1  0  0  0
  9 58  1  0  0  0
  9 59  1  0  0  0
 10 11  2  0  0  0
 10 14  1  0  0  0
 11 12  1  0  0  0
 11 60  1  0  0  0
 12 13  2  0  0  0
 14 15  2  0  0  0
 14 21  1  0  0  0
 15 16  1  0  0  0
 15 17  1  0  0  0
 17 18  2  0  0  0
 17 61  1  0  0  0
 18 19  1  0  0  0
 18 62  1  0  0  0
 19 20  1  0  0  0
 19 21  2  0  0  0
 21 22  1  0  0  0
 23 24  1  0  0  0
 23 28  2  0  0  0
 24 25  2  0  0  0
 24 63  1  0  0  0
 25 26  1  0  0  0
 25 29  1  0  0  0
 26 27  2  0  0  0
 26 64  1  0  0  0
 27 28  1  0  0  0
 27 65  1  0  0  0
 29 30  2  0  0  0
 29 41  1  0  0  0
 30 31  1  0  0  0
 30 66  1  0  0  0
 31 32  2  0  0  0
 31 67  1  0  0  0
 32 33  1  0  0  0
 32 40  1  0  0  0
 33 34  1  0  0  0
 33 68  1  0  0  0
 34 35  1  0  0  0
 34 39  2  0  0  0
 35 36  1  0  0  0
 36 37  1  0  0  0
 36 38  2  0  0  0
 37 69  1  0  0  0
 37 70  1  0  0  0
 37 71  1  0  0  0
 38 39  1  0  0  0
 40 41  2  0  0  0
 40 72  1  0  0  0
 41 42  1  0  0  0
 42 43  1  0  0  0
 42 73  1  0  0  0
 43 44  2  0  0  0
M  END
> <chembl_id>
CHEMBL4112597

> <chembl_pref_name>
None

> <i_m_ct_stereo_status>
1

> <s_m_source_file>
sdf/actives_sanitized.sdf

> <i_m_source_file_index>
89

> <i_lp_mmshare_version>
49012

> <i_f3d_flags>
0

> <s_epik_input>
bjFuYyhbQ0gzXSlvYzFbTkhdYyhbY0hdW2NIXTIpW2NIXWMoYzJjKFtjSF1jMzQpW2NIXVtjSF1uNClbTkhdQyg9TylbQ0BIXShbQ0gzXSlbQ0gyXVtDSDJdW0NIMl1bQ0BASF0zTjVbQ0gyXVtDSDJdQyg9W0NIXUM1PU8pYzZjKEYpW2NIXVtjSF1jKENsKWM2Rg==

> <s_epik_cmdline>
J2VwaWtfcHl0aG9uJywgJy1waHQnLCAnMC41JywgJy1waCcsICc3LjUnLCAnLW50JywgJy1tYScsICcyMDAnLCAnLWltYWUnLCAnPGluZmlsZS5tYWU+JywgJy1vbWFlJywgJzxvdXRmaWxlLm1hZT4n

> <r_lp_tautomer_probability>
1

> <r_epik_Ionization_Penalty>
  0.0001

> <r_epik_Ionization_Penalty_Charging>
  0.0000

> <r_epik_Ionization_Penalty_Neutral>
  0.0001

> <r_epik_State_Penalty>
 -0.0000

> <r_epik_Charging_Adjusted_Penalty>
0

> <i_epik_Tot_Q>
0

> <i_epik_Tot_abs_Q>
0

> <s_lp_Force_Field>
OPLS3e

> <r_lp_Energy>
96.569306

> <b_lp_Chiralities_Consistent>
1

> <s_lp_Variant>
sdf/actives_sanitized.sdf:89-1

$$$$
sdf/actives_sanitized.sdf:90
                    3D
 Schrodinger Suite 2020-1.
 67 71  0  0  1  0            999 V2000
   -0.7403    1.2274   -0.1508 C   0  0  0  0  0  0
   -0.0061    0.0079   -0.1349 O   0  0  0  0  0  0
    1.3738    0.0543   -0.0873 C   0  0  0  0  0  0
    2.1292    1.2359   -0.0572 C   0  0  0  0  0  0
    3.5206    1.1845   -0.0031 C   0  0  0  0  0  0
    4.1976   -0.0391    0.0250 C   0  0  0  0  0  0
    3.4405   -1.2297   -0.0311 C   0  0  0  0  0  0
    4.0148   -2.5106    0.0025 N   0  0  0  0  0  0
    4.7078   -3.1391   -0.9746 C   0  0  0  0  0  0
    5.0823   -4.2973   -0.7938 O   0  0  0  0  0  0
    5.0507   -2.4515   -2.3232 C   0  0  2  0  0  0
    4.2804   -3.1066   -3.4877 C   0  0  0  0  0  0
    6.5884   -2.4569   -2.5692 C   0  0  0  0  0  0
    7.0879   -1.4458   -3.6354 C   0  0  0  0  0  0
    8.4869   -0.8364   -3.3466 C   0  0  0  0  0  0
    8.5040    0.4369   -2.4395 C   0  0  2  0  0  0
    9.8557    1.0286   -2.2750 N   0  0  0  0  0  0
   11.0358    0.1314   -2.0898 C   0  0  0  0  0  0
   12.1992    0.8032   -1.3110 C   0  0  0  0  0  0
   12.4235    2.1997   -1.8631 C   0  0  0  0  0  0
   11.3391    2.9025   -2.2455 C   0  0  0  0  0  0
    9.9837    2.3962   -2.2609 C   0  0  0  0  0  0
    9.0328    3.1803   -2.2558 O   0  0  0  0  0  0
   13.7320    2.8812   -1.7080 C   0  0  0  0  0  0
   14.3197    3.5422   -2.8005 C   0  0  0  0  0  0
   13.7084    3.5578   -4.0089 F   0  0  0  0  0  0
   15.5508    4.1830   -2.6648 C   0  0  0  0  0  0
   16.2138    4.1742   -1.4408 C   0  0  0  0  0  0
   15.6473    3.5223   -0.3472 C   0  0  0  0  0  0
   16.4818    3.5234    1.1660 Cl  0  0  0  0  0  0
   14.4131    2.8773   -0.4777 C   0  0  0  0  0  0
   13.8744    2.2630    0.6031 F   0  0  0  0  0  0
    7.7706    0.2140   -1.1134 C   0  0  0  0  0  0
    6.3907    0.4178   -1.0544 C   0  0  0  0  0  0
    5.6810   -0.0386    0.0589 C   0  0  0  0  0  0
    6.3984   -0.5636    1.1409 C   0  0  0  0  0  0
    7.7896   -0.6459    1.0500 C   0  0  0  0  0  0
    8.4787   -0.2853   -0.0628 N   0  0  0  0  0  0
    2.0445   -1.1691   -0.0694 C   0  0  0  0  0  0
   -1.8066    1.0050   -0.1861 H   0  0  0  0  0  0
   -0.4995    1.8284   -1.0290 H   0  0  0  0  0  0
   -0.5562    1.8175    0.7484 H   0  0  0  0  0  0
    1.6548    2.2054   -0.0731 H   0  0  0  0  0  0
    4.0786    2.1098    0.0202 H   0  0  0  0  0  0
    3.7783   -3.0646    0.8127 H   0  0  0  0  0  0
    4.7200   -1.4161   -2.2831 H   0  0  0  0  0  0
    3.2026   -3.0746   -3.3209 H   0  0  0  0  0  0
    4.5605   -4.1527   -3.6216 H   0  0  0  0  0  0
    4.4754   -2.5903   -4.4282 H   0  0  0  0  0  0
    7.1012   -2.2645   -1.6274 H   0  0  0  0  0  0
    6.9194   -3.4604   -2.8427 H   0  0  0  0  0  0
    7.1154   -1.9590   -4.5976 H   0  0  0  0  0  0
    6.3701   -0.6364   -3.7730 H   0  0  0  0  0  0
    9.1332   -1.6171   -2.9450 H   0  0  0  0  0  0
    8.9290   -0.5601   -4.3052 H   0  0  0  0  0  0
    7.9033    1.1657   -2.9878 H   0  0  0  0  0  0
   10.7539   -0.8449   -1.6961 H   0  0  0  0  0  0
   11.4085   -0.0667   -3.0957 H   0  0  0  0  0  0
   11.9007    0.8710   -0.2638 H   0  0  0  0  0  0
   13.1045    0.1973   -1.3614 H   0  0  0  0  0  0
   11.4639    3.9369   -2.5344 H   0  0  0  0  0  0
   15.9944    4.6853   -3.5119 H   0  0  0  0  0  0
   17.1668    4.6736   -1.3431 H   0  0  0  0  0  0
    5.8603    0.8033   -1.9135 H   0  0  0  0  0  0
    5.8876   -0.9185    2.0241 H   0  0  0  0  0  0
    8.3712   -1.0477    1.8664 H   0  0  0  0  0  0
    1.4662   -2.0823   -0.0937 H   0  0  0  0  0  0
  1  2  1  0  0  0
  1 40  1  0  0  0
  1 41  1  0  0  0
  1 42  1  0  0  0
  2  3  1  0  0  0
  3  4  2  0  0  0
  3 39  1  0  0  0
  4  5  1  0  0  0
  4 43  1  0  0  0
  5  6  2  0  0  0
  5 44  1  0  0  0
  6  7  1  0  0  0
  6 35  1  0  0  0
  7  8  1  0  0  0
  7 39  2  0  0  0
  8  9  1  0  0  0
  8 45  1  0  0  0
  9 10  2  0  0  0
  9 11  1  0  0  0
 11 12  1  0  0  0
 11 13  1  0  0  0
 11 46  1  0  0  0
 12 47  1  0  0  0
 12 48  1  0  0  0
 12 49  1  0  0  0
 13 14  1  0  0  0
 13 50  1  0  0  0
 13 51  1  0  0  0
 14 15  1  0  0  0
 14 52  1  0  0  0
 14 53  1  0  0  0
 15 16  1  0  0  0
 15 54  1  0  0  0
 15 55  1  0  0  0
 16 17  1  0  0  0
 16 33  1  0  0  0
 16 56  1  0  0  0
 17 18  1  0  0  0
 17 22  1  0  0  0
 18 19  1  0  0  0
 18 57  1  0  0  0
 18 58  1  0  0  0
 19 20  1  0  0  0
 19 59  1  0  0  0
 19 60  1  0  0  0
 20 21  2  0  0  0
 20 24  1  0  0  0
 21 22  1  0  0  0
 21 61  1  0  0  0
 22 23  2  0  0  0
 24 25  2  0  0  0
 24 31  1  0  0  0
 25 26  1  0  0  0
 25 27  1  0  0  0
 27 28  2  0  0  0
 27 62  1  0  0  0
 28 29  1  0  0  0
 28 63  1  0  0  0
 29 30  1  0  0  0
 29 31  2  0  0  0
 31 32  1  0  0  0
 33 34  1  0  0  0
 33 38  2  0  0  0
 34 35  2  0  0  0
 34 64  1  0  0  0
 35 36  1  0  0  0
 36 37  2  0  0  0
 36 65  1  0  0  0
 37 38  1  0  0  0
 37 66  1  0  0  0
 39 67  1  0  0  0
M  END
> <chembl_id>
CHEMBL4113668

> <chembl_pref_name>
None

> <i_m_ct_stereo_status>
1

> <s_m_source_file>
sdf/actives_sanitized.sdf

> <i_m_source_file_index>
90

> <i_lp_mmshare_version>
49012

> <i_f3d_flags>
0

> <s_epik_input>
W0NIM11PYyhbY0hdW2NIXTEpW2NIXWMoYzEyKVtOSF1DKD1PKVtDQEhdKFtDSDNdKVtDSDJdW0NIMl1bQ0gyXVtDQEBIXShjM1tjSF1jMltjSF1bY0hdbjMpTjRbQ0gyXVtDSDJdQyg9W0NIXUM0PU8pYzVjKEYpW2NIXVtjSF1jKENsKWM1Rg==

> <s_epik_cmdline>
J2VwaWtfcHl0aG9uJywgJy1waHQnLCAnMC41JywgJy1waCcsICc3LjUnLCAnLW50JywgJy1tYScsICcyMDAnLCAnLWltYWUnLCAnPGluZmlsZS5tYWU+JywgJy1vbWFlJywgJzxvdXRmaWxlLm1hZT4n

> <r_lp_tautomer_probability>
1

> <r_epik_Ionization_Penalty>
  0.0003

> <r_epik_Ionization_Penalty_Charging>
  0.0000

> <r_epik_Ionization_Penalty_Neutral>
  0.0003

> <r_epik_State_Penalty>
 -0.0000

> <r_epik_Charging_Adjusted_Penalty>
0

> <i_epik_Tot_Q>
0

> <i_epik_Tot_abs_Q>
0

> <s_lp_Force_Field>
OPLS3e

> <r_lp_Energy>
95.968316

> <b_lp_Chiralities_Consistent>
1

> <s_lp_Variant>
sdf/actives_sanitized.sdf:90-1

$$$$
sdf/actives_sanitized.sdf:91
                    3D
 Schrodinger Suite 2020-1.
 57 61  0  0  1  0            999 V2000
   -0.4975   -0.6683   -1.3643 C   0  0  0  0  0  0
   -0.0291    0.0485   -0.0920 C   0  0  1  0  0  0
    1.4945   -0.0688    0.1931 C   0  0  0  0  0  0
    1.9931   -1.4471    0.1925 N   0  0  0  0  0  0
    2.8029   -1.9891   -0.7346 C   0  0  0  0  0  0
    3.1758   -3.4229   -0.4743 C   0  0  0  0  0  0
    3.2296   -1.3999   -1.7280 O   0  0  0  0  0  0
   -0.5421    1.4915   -0.0244 C   0  0  0  0  0  0
    0.0768    2.5180   -0.7519 C   0  0  0  0  0  0
   -0.3996    3.8271   -0.6757 C   0  0  0  0  0  0
   -1.4977    4.1245    0.1302 C   0  0  0  0  0  0
   -2.1205    3.1122    0.8591 C   0  0  0  0  0  0
   -1.6450    1.8028    0.7818 C   0  0  0  0  0  0
    4.2656   -3.7372    0.3609 C   0  0  0  0  0  0
    4.6011   -5.0698    0.6032 C   0  0  0  0  0  0
    3.8697   -6.1123    0.0236 C   0  0  0  0  0  0
    2.7915   -5.7972   -0.8131 C   0  0  0  0  0  0
    2.4431   -4.4702   -1.0653 C   0  0  0  0  0  0
    1.0958   -4.1811   -2.1184 Cl  0  0  0  0  0  0
    4.2205   -7.4611    0.2857 N   0  0  0  0  0  0
    4.9997   -7.9861    1.2873 C   0  0  0  0  0  0
    5.0785   -9.2870    1.1837 N   0  0  0  0  0  0
    4.3311   -9.5294    0.1184 C   0  0  0  0  0  0
    3.7930   -8.4829   -0.4723 N   0  0  0  0  0  0
    5.2332   -2.5148    1.1221 Cl  0  0  0  0  0  0
    4.1338  -10.9318   -0.4124 C   0  0  0  0  0  0
   -3.1849    3.3995    1.6420 F   0  0  0  0  0  0
   -1.5530   -1.5864   -1.2822 C   0  0  0  0  0  0
   -2.0131   -2.2824   -2.4003 C   0  0  0  0  0  0
    0.1476   -0.4200   -2.5855 C   0  0  0  0  0  0
   -0.3093   -1.1270   -3.6999 C   0  0  0  0  0  0
   -1.3797   -2.0523   -3.6281 C   0  0  0  0  0  0
   -1.6337   -2.6124   -4.8531 N   0  0  0  0  0  0
   -0.7555   -2.0639   -5.6561 C   0  0  0  0  0  0
    0.0669   -1.1624   -5.0223 N   0  0  0  0  0  0
   -0.6352   -2.3708   -7.1301 C   0  0  0  0  0  0
   -0.4919   -0.4642    0.7547 H   0  0  0  0  0  0
    2.0646    0.5469   -0.5048 H   0  0  0  0  0  0
    1.7093    0.3481    1.1780 H   0  0  0  0  0  0
    1.7396   -2.0105    0.9908 H   0  0  0  0  0  0
    0.9254    2.3085   -1.3860 H   0  0  0  0  0  0
    0.0823    4.6108   -1.2414 H   0  0  0  0  0  0
   -1.8656    5.1384    0.1893 H   0  0  0  0  0  0
   -2.1398    1.0298    1.3517 H   0  0  0  0  0  0
    5.4439   -5.2805    1.2450 H   0  0  0  0  0  0
    2.2092   -6.5824   -1.2742 H   0  0  0  0  0  0
    5.4573   -7.3606    2.0391 H   0  0  0  0  0  0
    3.7662  -10.9619   -1.4391 H   0  0  0  0  0  0
    3.5046  -11.5382    0.2396 H   0  0  0  0  0  0
    5.0891  -11.4575   -0.4374 H   0  0  0  0  0  0
   -2.0338   -1.7669   -0.3316 H   0  0  0  0  0  0
   -2.8296   -2.9845   -2.3154 H   0  0  0  0  0  0
    0.9692    0.2768   -2.6590 H   0  0  0  0  0  0
   -1.3544   -3.1230   -7.4563 H   0  0  0  0  0  0
    0.3557   -2.7501   -7.3803 H   0  0  0  0  0  0
   -0.8044   -1.4829   -7.7396 H   0  0  0  0  0  0
    0.8008   -0.6498   -5.4894 H   0  0  0  0  0  0
  1  2  1  0  0  0
  1 28  2  0  0  0
  1 30  1  0  0  0
  2  3  1  0  0  0
  2  8  1  0  0  0
  2 37  1  0  0  0
  3  4  1  0  0  0
  3 38  1  0  0  0
  3 39  1  0  0  0
  4  5  1  0  0  0
  4 40  1  0  0  0
  5  6  1  0  0  0
  5  7  2  0  0  0
  6 14  2  0  0  0
  6 18  1  0  0  0
  8  9  2  0  0  0
  8 13  1  0  0  0
  9 10  1  0  0  0
  9 41  1  0  0  0
 10 11  2  0  0  0
 10 42  1  0  0  0
 11 12  1  0  0  0
 11 43  1  0  0  0
 12 13  2  0  0  0
 12 27  1  0  0  0
 13 44  1  0  0  0
 14 15  1  0  0  0
 14 25  1  0  0  0
 15 16  2  0  0  0
 15 45  1  0  0  0
 16 17  1  0  0  0
 16 20  1  0  0  0
 17 18  2  0  0  0
 17 46  1  0  0  0
 18 19  1  0  0  0
 20 21  1  0  0  0
 20 24  1  0  0  0
 21 22  2  0  0  0
 21 47  1  0  0  0
 22 23  1  0  0  0
 23 24  2  0  0  0
 23 26  1  0  0  0
 26 48  1  0  0  0
 26 49  1  0  0  0
 26 50  1  0  0  0
 28 29  1  0  0  0
 28 51  1  0  0  0
 29 32  2  0  0  0
 29 52  1  0  0  0
 30 31  2  0  0  0
 30 53  1  0  0  0
 31 32  1  0  0  0
 31 35  1  0  0  0
 32 33  1  0  0  0
 33 34  2  0  0  0
 34 35  1  0  0  0
 34 36  1  0  0  0
 35 57  1  0  0  0
 36 54  1  0  0  0
 36 55  1  0  0  0
 36 56  1  0  0  0
M  END
> <chembl_id>
CHEMBL3627897

> <chembl_pref_name>
None

> <i_m_ct_stereo_status>
1

> <s_m_source_file>
sdf/actives_sanitized.sdf

> <i_m_source_file_index>
91

> <i_lp_mmshare_version>
49012

> <i_f3d_flags>
0

> <s_epik_input>
bjFjKFtDSDNdKVtuSF1jKGMxMilbY0hdW2NIXWMoW2NIXTIpW0NASF0oYzNbY0hdW2NIXVtjSF1jKEYpW2NIXTMpW0NIMl1bTkhdQyg9TyljNGMoQ2wpW2NIXWMoW2NIXWM0Q2wpLW41W2NIXW5jKG41KVtDSDNd

> <s_epik_cmdline>
J2VwaWtfcHl0aG9uJywgJy1waHQnLCAnMC41JywgJy1waCcsICc3LjUnLCAnLW50JywgJy1tYScsICcyMDAnLCAnLWltYWUnLCAnPGluZmlsZS5tYWU+JywgJy1vbWFlJywgJzxvdXRmaWxlLm1hZT4n

> <r_lp_tautomer_probability>
1

> <r_epik_Ionization_Penalty>
  0.0324

> <r_epik_Ionization_Penalty_Charging>
  0.0000

> <r_epik_Ionization_Penalty_Neutral>
  0.0324

> <r_epik_State_Penalty>
  0.4105

> <r_epik_Charging_Adjusted_Penalty>
0.410477551491447

> <i_epik_Tot_Q>
0

> <i_epik_Tot_abs_Q>
0

> <s_lp_Force_Field>
OPLS3e

> <r_lp_Energy>
31.804715

> <b_lp_Chiralities_Consistent>
1

> <s_lp_Variant>
sdf/actives_sanitized.sdf:91-1

$$$$
sdf/actives_sanitized.sdf:91
                    3D
 Schrodinger Suite 2020-1.
 57 61  0  0  1  0            999 V2000
   -0.5250   -0.6557   -1.3510 C   0  0  0  0  0  0
   -0.0501    0.0638   -0.0828 C   0  0  1  0  0  0
    1.4716   -0.0728    0.2075 C   0  0  0  0  0  0
    1.9570   -1.4564    0.2117 N   0  0  0  0  0  0
    2.7437   -2.0129   -0.7268 C   0  0  0  0  0  0
    3.1222   -3.4440   -0.4595 C   0  0  0  0  0  0
    3.1501   -1.4366   -1.7358 O   0  0  0  0  0  0
   -0.5445    1.5141   -0.0295 C   0  0  0  0  0  0
    0.0977    2.5290   -0.7532 C   0  0  0  0  0  0
   -0.3651    3.8438   -0.6924 C   0  0  0  0  0  0
   -1.4725    4.1588    0.0937 C   0  0  0  0  0  0
   -2.1186    3.1582    0.8182 C   0  0  0  0  0  0
   -1.6565    1.8432    0.7569 C   0  0  0  0  0  0
    4.2488   -3.7488    0.3289 C   0  0  0  0  0  0
    4.5992   -5.0787    0.5658 C   0  0  0  0  0  0
    3.8457   -6.1272    0.0275 C   0  0  0  0  0  0
    2.7271   -5.8222   -0.7580 C   0  0  0  0  0  0
    2.3636   -4.4980   -1.0044 C   0  0  0  0  0  0
    0.9677   -4.2211   -1.9948 Cl  0  0  0  0  0  0
    4.2181   -7.4723    0.2760 N   0  0  0  0  0  0
    5.0273   -7.9913    1.2562 C   0  0  0  0  0  0
    5.1255   -9.2899    1.1406 N   0  0  0  0  0  0
    4.3607   -9.5365    0.0886 C   0  0  0  0  0  0
    3.7914   -8.4947   -0.4814 N   0  0  0  0  0  0
    5.2472   -2.5178    1.0344 Cl  0  0  0  0  0  0
    4.1790  -10.9375   -0.4518 C   0  0  0  0  0  0
   -3.1937    3.4621    1.5799 F   0  0  0  0  0  0
   -1.5811   -1.5729   -1.2702 C   0  0  0  0  0  0
   -2.0510   -2.2775   -2.3810 C   0  0  0  0  0  0
    0.1104   -0.4171   -2.5771 C   0  0  0  0  0  0
   -0.3294   -1.1157   -3.7092 C   0  0  0  0  0  0
   -1.4022   -2.0339   -3.5932 C   0  0  0  0  0  0
   -1.5536   -2.5247   -4.8691 N   0  0  0  0  0  0
   -0.6089   -1.9098   -5.6569 C   0  0  0  0  0  0
    0.1381   -1.0599   -4.9965 N   0  0  0  0  0  0
   -0.4680   -2.2069   -7.1313 C   0  0  0  0  0  0
   -0.5232   -0.4353    0.7661 H   0  0  0  0  0  0
    2.0520    0.5338   -0.4901 H   0  0  0  0  0  0
    1.6881    0.3444    1.1918 H   0  0  0  0  0  0
    1.7168   -2.0092    1.0215 H   0  0  0  0  0  0
    0.9533    2.3069   -1.3729 H   0  0  0  0  0  0
    0.1337    4.6183   -1.2561 H   0  0  0  0  0  0
   -1.8301    5.1768    0.1399 H   0  0  0  0  0  0
   -2.1696    1.0793    1.3228 H   0  0  0  0  0  0
    5.4726   -5.2837    1.1674 H   0  0  0  0  0  0
    2.1267   -6.6132   -1.1847 H   0  0  0  0  0  0
    5.4918   -7.3630    2.0015 H   0  0  0  0  0  0
    3.7891  -10.9650   -1.4702 H   0  0  0  0  0  0
    3.5761  -11.5621    0.2077 H   0  0  0  0  0  0
    5.1432  -11.4445   -0.5031 H   0  0  0  0  0  0
   -2.0588   -1.7491   -0.3173 H   0  0  0  0  0  0
   -2.8670   -2.9795   -2.2958 H   0  0  0  0  0  0
    0.9317    0.2801   -2.6498 H   0  0  0  0  0  0
   -2.2112   -3.2081   -5.2153 H   0  0  0  0  0  0
    0.3104   -1.6051   -7.6021 H   0  0  0  0  0  0
   -1.3939   -2.0075   -7.6709 H   0  0  0  0  0  0
   -0.2110   -3.2519   -7.3059 H   0  0  0  0  0  0
  1  2  1  0  0  0
  1 28  2  0  0  0
  1 30  1  0  0  0
  2  3  1  0  0  0
  2  8  1  0  0  0
  2 37  1  0  0  0
  3  4  1  0  0  0
  3 38  1  0  0  0
  3 39  1  0  0  0
  4  5  1  0  0  0
  4 40  1  0  0  0
  5  6  1  0  0  0
  5  7  2  0  0  0
  6 14  2  0  0  0
  6 18  1  0  0  0
  8  9  2  0  0  0
  8 13  1  0  0  0
  9 10  1  0  0  0
  9 41  1  0  0  0
 10 11  2  0  0  0
 10 42  1  0  0  0
 11 12  1  0  0  0
 11 43  1  0  0  0
 12 13  2  0  0  0
 12 27  1  0  0  0
 13 44  1  0  0  0
 14 15  1  0  0  0
 14 25  1  0  0  0
 15 16  2  0  0  0
 15 45  1  0  0  0
 16 17  1  0  0  0
 16 20  1  0  0  0
 17 18  2  0  0  0
 17 46  1  0  0  0
 18 19  1  0  0  0
 20 21  1  0  0  0
 20 24  1  0  0  0
 21 22  2  0  0  0
 21 47  1  0  0  0
 22 23  1  0  0  0
 23 24  2  0  0  0
 23 26  1  0  0  0
 26 48  1  0  0  0
 26 49  1  0  0  0
 26 50  1  0  0  0
 28 29  1  0  0  0
 28 51  1  0  0  0
 29 32  2  0  0  0
 29 52  1  0  0  0
 30 31  2  0  0  0
 30 53  1  0  0  0
 31 32  1  0  0  0
 31 35  1  0  0  0
 32 33  1  0  0  0
 33 34  1  0  0  0
 33 54  1  0  0  0
 34 35  2  0  0  0
 34 36  1  0  0  0
 36 55  1  0  0  0
 36 56  1  0  0  0
 36 57  1  0  0  0
M  END
> <chembl_id>
CHEMBL3627897

> <chembl_pref_name>
None

> <i_m_ct_stereo_status>
1

> <s_m_source_file>
sdf/actives_sanitized.sdf

> <i_m_source_file_index>
91

> <i_lp_mmshare_version>
49012

> <i_f3d_flags>
0

> <s_epik_input>
bjFjKFtDSDNdKVtuSF1jKGMxMilbY0hdW2NIXWMoW2NIXTIpW0NASF0oYzNbY0hdW2NIXVtjSF1jKEYpW2NIXTMpW0NIMl1bTkhdQyg9TyljNGMoQ2wpW2NIXWMoW2NIXWM0Q2wpLW41W2NIXW5jKG41KVtDSDNd

> <s_epik_cmdline>
J2VwaWtfcHl0aG9uJywgJy1waHQnLCAnMC41JywgJy1waCcsICc3LjUnLCAnLW50JywgJy1tYScsICcyMDAnLCAnLWltYWUnLCAnPGluZmlsZS5tYWU+JywgJy1vbWFlJywgJzxvdXRmaWxlLm1hZT4n

> <r_epik_Ionization_Penalty>
  0.0338

> <r_epik_Ionization_Penalty_Charging>
  0.0000

> <r_epik_Ionization_Penalty_Neutral>
  0.0338

> <r_epik_State_Penalty>
  0.4389

> <r_epik_Charging_Adjusted_Penalty>
0.438916054175289

> <i_epik_Tot_Q>
0

> <i_epik_Tot_abs_Q>
0

> <s_lp_Force_Field>
OPLS3e

> <r_lp_Energy>
31.853314

> <b_lp_Chiralities_Consistent>
1

> <s_lp_Variant>
sdf/actives_sanitized.sdf:91-2

$$$$
sdf/actives_sanitized.sdf:92
                    3D
 Schrodinger Suite 2020-1.
 57 61  0  0  1  0            999 V2000
   -1.6233   -2.9417   -5.0250 C   0  0  0  0  0  0
   -2.8479   -3.1565   -4.3685 C   0  0  0  0  0  0
   -3.1001   -2.6417   -3.0929 C   0  0  0  0  0  0
   -0.6072   -2.1978   -4.4140 C   0  0  0  0  0  0
   -1.3761   -3.5090   -6.4156 C   0  0  0  0  0  0
   -4.1057   -4.0761   -5.1226 Cl  0  0  0  0  0  0
   -0.8362   -1.6720   -3.1360 C   0  0  0  0  0  0
   -2.0773   -1.9017   -2.4968 C   0  0  0  0  0  0
   -1.9512   -1.2512   -1.2914 N   0  0  0  0  0  0
   -0.6946   -0.6908   -1.2539 C   0  0  0  0  0  0
   -0.0057   -0.9191   -2.3483 N   0  0  0  0  0  0
   -0.2186    0.1500   -0.0737 C   0  0  1  0  0  0
    1.2733   -0.1176    0.2652 C   0  0  0  0  0  0
    1.7599    0.5780    1.4600 N   0  0  0  0  0  0
    2.5139    1.6920    1.4583 C   0  0  0  0  0  0
    2.9607    2.1505    2.8195 C   0  0  0  0  0  0
    2.8526    2.3094    0.4486 O   0  0  0  0  0  0
   -0.5298    1.6347   -0.2904 C   0  0  0  0  0  0
    0.0661    2.3449   -1.3412 C   0  0  0  0  0  0
   -0.2166    3.6973   -1.5312 C   0  0  0  0  0  0
   -1.1028    4.3512   -0.6761 C   0  0  0  0  0  0
   -1.7053    3.6523    0.3694 C   0  0  0  0  0  0
   -1.4178    2.3007    0.5632 C   0  0  0  0  0  0
    4.1265    1.6170    3.4034 C   0  0  0  0  0  0
    4.5433    2.0542    4.6611 C   0  0  0  0  0  0
    3.8202    3.0268    5.3590 C   0  0  0  0  0  0
    2.6628    3.5581    4.7768 C   0  0  0  0  0  0
    2.2314    3.1300    3.5210 C   0  0  0  0  0  0
    0.7904    3.8504    2.8802 Cl  0  0  0  0  0  0
    4.2621    3.4636    6.6324 N   0  0  0  0  0  0
    5.1001    2.8466    7.5277 C   0  0  0  0  0  0
    5.2668    3.5848    8.5938 N   0  0  0  0  0  0
    4.5140    4.6402    8.3251 C   0  0  0  0  0  0
    3.8878    4.6363    7.1667 N   0  0  0  0  0  0
    5.0949    0.4158    2.6104 Cl  0  0  0  0  0  0
    4.4066    5.8047    9.2842 C   0  0  0  0  0  0
   -2.5646    4.2858    1.1990 F   0  0  0  0  0  0
   -4.0451   -2.8109   -2.5974 H   0  0  0  0  0  0
    0.3349   -2.0290   -4.9154 H   0  0  0  0  0  0
   -0.3984   -3.2311   -6.8117 H   0  0  0  0  0  0
   -2.1349   -3.1471   -7.1101 H   0  0  0  0  0  0
   -1.4415   -4.5974   -6.3974 H   0  0  0  0  0  0
   -2.6222   -1.1668   -0.5416 H   0  0  0  0  0  0
   -0.7792   -0.1694    0.8075 H   0  0  0  0  0  0
    1.4137   -1.1849    0.4423 H   0  0  0  0  0  0
    1.9042    0.1105   -0.5972 H   0  0  0  0  0  0
    1.5558    0.1398    2.3462 H   0  0  0  0  0  0
    0.7565    1.8509   -2.0092 H   0  0  0  0  0  0
    0.2518    4.2376   -2.3406 H   0  0  0  0  0  0
   -1.3211    5.3985   -0.8231 H   0  0  0  0  0  0
   -1.8883    1.7745    1.3808 H   0  0  0  0  0  0
    5.4454    1.6351    5.0822 H   0  0  0  0  0  0
    2.0857    4.3095    5.2967 H   0  0  0  0  0  0
    5.5311    1.8770    7.3269 H   0  0  0  0  0  0
    4.0140    6.7135    8.8260 H   0  0  0  0  0  0
    5.3973    6.0766    9.6506 H   0  0  0  0  0  0
    3.8428    5.5517   10.1823 H   0  0  0  0  0  0
  1  2  2  0  0  0
  1  4  1  0  0  0
  1  5  1  0  0  0
  2  3  1  0  0  0
  2  6  1  0  0  0
  3  8  2  0  0  0
  3 38  1  0  0  0
  4  7  2  0  0  0
  4 39  1  0  0  0
  5 40  1  0  0  0
  5 41  1  0  0  0
  5 42  1  0  0  0
  7  8  1  0  0  0
  7 11  1  0  0  0
  8  9  1  0  0  0
  9 10  1  0  0  0
  9 43  1  0  0  0
 10 11  2  0  0  0
 10 12  1  0  0  0
 12 13  1  0  0  0
 12 18  1  0  0  0
 12 44  1  0  0  0
 13 14  1  0  0  0
 13 45  1  0  0  0
 13 46  1  0  0  0
 14 15  1  0  0  0
 14 47  1  0  0  0
 15 16  1  0  0  0
 15 17  2  0  0  0
 16 24  2  0  0  0
 16 28  1  0  0  0
 18 19  2  0  0  0
 18 23  1  0  0  0
 19 20  1  0  0  0
 19 48  1  0  0  0
 20 21  2  0  0  0
 20 49  1  0  0  0
 21 22  1  0  0  0
 21 50  1  0  0  0
 22 23  2  0  0  0
 22 37  1  0  0  0
 23 51  1  0  0  0
 24 25  1  0  0  0
 24 35  1  0  0  0
 25 26  2  0  0  0
 25 52  1  0  0  0
 26 27  1  0  0  0
 26 30  1  0  0  0
 27 28  2  0  0  0
 27 53  1  0  0  0
 28 29  1  0  0  0
 30 31  1  0  0  0
 30 34  1  0  0  0
 31 32  2  0  0  0
 31 54  1  0  0  0
 32 33  1  0  0  0
 33 34  2  0  0  0
 33 36  1  0  0  0
 36 55  1  0  0  0
 36 56  1  0  0  0
 36 57  1  0  0  0
M  END
> <chembl_id>
CHEMBL3627893

> <chembl_pref_name>
None

> <i_m_ct_stereo_status>
1

> <s_m_source_file>
sdf/actives_sanitized.sdf

> <i_m_source_file_index>
92

> <i_lp_mmshare_version>
49012

> <i_f3d_flags>
0

> <s_epik_input>
W2NIXTFjKFtDSDNdKWMoQ2wpW2NIXWMoYzEyKVtuSF1jKG4yKVtDQEhdKGMzW2NIXVtjSF1bY0hdYyhGKVtjSF0zKVtDSDJdW05IXUMoPU8pYzRjKENsKVtjSF1jKFtjSF1jNENsKS1uNVtjSF1uYyhuNSlbQ0gzXQ==

> <s_epik_cmdline>
J2VwaWtfcHl0aG9uJywgJy1waHQnLCAnMC41JywgJy1waCcsICc3LjUnLCAnLW50JywgJy1tYScsICcyMDAnLCAnLWltYWUnLCAnPGluZmlsZS5tYWU+JywgJy1vbWFlJywgJzxvdXRmaWxlLm1hZT4n

> <r_lp_tautomer_probability>
1

> <r_epik_Ionization_Penalty>
  0.0094

> <r_epik_Ionization_Penalty_Charging>
  0.0000

> <r_epik_Ionization_Penalty_Neutral>
  0.0094

> <r_epik_State_Penalty>
 -0.0000

> <r_epik_Charging_Adjusted_Penalty>
0

> <i_epik_Tot_Q>
0

> <i_epik_Tot_abs_Q>
0

> <s_lp_Force_Field>
OPLS3e

> <r_lp_Energy>
29.801294

> <b_lp_Chiralities_Consistent>
1

> <s_lp_Variant>
sdf/actives_sanitized.sdf:92-1

$$$$
sdf/actives_sanitized.sdf:93
                    3D
 Schrodinger Suite 2020-1.
 57 61  0  0  1  0            999 V2000
   -1.5878   -2.9120   -5.1072 C   0  0  0  0  0  0
   -2.9124   -2.6841   -4.6855 C   0  0  0  0  0  0
   -3.1919   -2.0146   -3.4862 C   0  0  0  0  0  0
   -0.5054   -2.4722   -4.3365 C   0  0  0  0  0  0
   -1.2955   -3.6413   -6.4126 C   0  0  0  0  0  0
   -4.0888   -3.1603   -5.5284 C   0  0  0  0  0  0
   -0.7637   -1.7981   -3.1367 C   0  0  0  0  0  0
   -2.1006   -1.5815   -2.7316 C   0  0  0  0  0  0
   -1.9767   -0.9073   -1.5395 N   0  0  0  0  0  0
   -0.6317   -0.7473   -1.2906 C   0  0  0  0  0  0
    0.1200   -1.2759   -2.2289 N   0  0  0  0  0  0
   -0.1254   -0.0145   -0.0483 C   0  0  1  0  0  0
    1.4035   -0.1901    0.1853 C   0  0  0  0  0  0
    1.9534    0.5616    1.3157 N   0  0  0  0  0  0
    1.7504    0.2774    2.6159 C   0  0  0  0  0  0
    2.3900    1.2338    3.5958 C   0  0  0  0  0  0
    1.0869   -0.6855    3.0037 O   0  0  0  0  0  0
   -0.5495    1.4622   -0.0337 C   0  0  0  0  0  0
   -0.2930    2.2771   -1.1451 C   0  0  0  0  0  0
   -0.6577    3.6232   -1.1370 C   0  0  0  0  0  0
   -1.2805    4.1699   -0.0162 C   0  0  0  0  0  0
   -1.5393    3.3696    1.0956 C   0  0  0  0  0  0
   -1.1781    2.0219    1.0897 C   0  0  0  0  0  0
    3.6984    1.6870    3.3630 C   0  0  0  0  0  0
    4.3191    2.5750    4.2383 C   0  0  0  0  0  0
    3.6402    3.0368    5.3692 C   0  0  0  0  0  0
    2.3326    2.6008    5.6075 C   0  0  0  0  0  0
    1.7034    1.7116    4.7331 C   0  0  0  0  0  0
    0.0667    1.2692    5.0995 Cl  0  0  0  0  0  0
    4.2666    3.9365    6.2581 N   0  0  0  0  0  0
    5.2593    4.8570    6.0001 C   0  0  0  0  0  0
    5.6034    5.5269    7.0713 N   0  0  0  0  0  0
    4.8161    5.0472    8.1131 N   0  0  0  0  0  0
    4.0441    4.1189    7.6057 C   0  0  0  0  0  0
   -1.4431    1.2677    2.1812 F   0  0  0  0  0  0
   -4.2071   -1.8388   -3.1609 H   0  0  0  0  0  0
    0.5112   -2.6452   -4.6587 H   0  0  0  0  0  0
   -0.2262   -3.7362   -6.6059 H   0  0  0  0  0  0
   -1.7423   -3.1094   -7.2529 H   0  0  0  0  0  0
   -1.7247   -4.6435   -6.3919 H   0  0  0  0  0  0
   -5.0513   -2.9044   -5.0834 H   0  0  0  0  0  0
   -4.0520   -4.2429   -5.6548 H   0  0  0  0  0  0
   -4.0494   -2.7117   -6.5216 H   0  0  0  0  0  0
   -2.7012   -0.5635   -0.9260 H   0  0  0  0  0  0
   -0.6153   -0.4955    0.7996 H   0  0  0  0  0  0
    1.6526   -1.2481    0.2927 H   0  0  0  0  0  0
    1.9447    0.1512   -0.6983 H   0  0  0  0  0  0
    2.5105    1.3706    1.0827 H   0  0  0  0  0  0
    0.1948    1.8678   -2.0182 H   0  0  0  0  0  0
   -0.4555    4.2426   -1.9983 H   0  0  0  0  0  0
   -1.5617    5.2126   -0.0087 H   0  0  0  0  0  0
   -2.0210    3.7938    1.9644 H   0  0  0  0  0  0
    4.2554    1.3442    2.5022 H   0  0  0  0  0  0
    5.3312    2.8901    4.0308 H   0  0  0  0  0  0
    1.7869    2.9605    6.4681 H   0  0  0  0  0  0
    5.6638    4.9751    5.0057 H   0  0  0  0  0  0
    3.3104    3.5279    8.1338 H   0  0  0  0  0  0
  1  2  2  0  0  0
  1  4  1  0  0  0
  1  5  1  0  0  0
  2  3  1  0  0  0
  2  6  1  0  0  0
  3  8  2  0  0  0
  3 36  1  0  0  0
  4  7  2  0  0  0
  4 37  1  0  0  0
  5 38  1  0  0  0
  5 39  1  0  0  0
  5 40  1  0  0  0
  6 41  1  0  0  0
  6 42  1  0  0  0
  6 43  1  0  0  0
  7  8  1  0  0  0
  7 11  1  0  0  0
  8  9  1  0  0  0
  9 10  1  0  0  0
  9 44  1  0  0  0
 10 11  2  0  0  0
 10 12  1  0  0  0
 12 13  1  0  0  0
 12 18  1  0  0  0
 12 45  1  0  0  0
 13 14  1  0  0  0
 13 46  1  0  0  0
 13 47  1  0  0  0
 14 15  1  0  0  0
 14 48  1  0  0  0
 15 16  1  0  0  0
 15 17  2  0  0  0
 16 24  2  0  0  0
 16 28  1  0  0  0
 18 19  2  0  0  0
 18 23  1  0  0  0
 19 20  1  0  0  0
 19 49  1  0  0  0
 20 21  2  0  0  0
 20 50  1  0  0  0
 21 22  1  0  0  0
 21 51  1  0  0  0
 22 23  2  0  0  0
 22 52  1  0  0  0
 23 35  1  0  0  0
 24 25  1  0  0  0
 24 53  1  0  0  0
 25 26  2  0  0  0
 25 54  1  0  0  0
 26 27  1  0  0  0
 26 30  1  0  0  0
 27 28  2  0  0  0
 27 55  1  0  0  0
 28 29  1  0  0  0
 30 31  1  0  0  0
 30 34  1  0  0  0
 31 32  2  0  0  0
 31 56  1  0  0  0
 32 33  1  0  0  0
 33 34  2  0  0  0
 34 57  1  0  0  0
M  END
> <chembl_id>
CHEMBL3627870

> <chembl_pref_name>
None

> <i_m_ct_stereo_status>
1

> <s_m_source_file>
sdf/actives_sanitized.sdf

> <i_m_source_file_index>
93

> <i_lp_mmshare_version>
49012

> <i_f3d_flags>
0

> <s_epik_input>
W2NIXTFjKFtDSDNdKWMoW0NIM10pW2NIXWMoYzEyKVtuSF1jKG4yKVtDQEhdKGMzW2NIXVtjSF1bY0hdW2NIXWMzRilbQ0gyXVtOSF1DKD1PKWM0W2NIXVtjSF1jKFtjSF1jNENsKS1uNVtjSF1ubltjSF01

> <s_epik_cmdline>
J2VwaWtfcHl0aG9uJywgJy1waHQnLCAnMC41JywgJy1waCcsICc3LjUnLCAnLW50JywgJy1tYScsICcyMDAnLCAnLWltYWUnLCAnPGluZmlsZS5tYWU+JywgJy1vbWFlJywgJzxvdXRmaWxlLm1hZT4n

> <r_lp_tautomer_probability>
1

> <r_epik_Ionization_Penalty>
  0.0167

> <r_epik_Ionization_Penalty_Charging>
  0.0000

> <r_epik_Ionization_Penalty_Neutral>
  0.0167

> <r_epik_State_Penalty>
  0.0132

> <r_epik_Charging_Adjusted_Penalty>
0.013171618342122

> <i_epik_Tot_Q>
0

> <i_epik_Tot_abs_Q>
0

> <s_lp_Force_Field>
OPLS3e

> <r_lp_Energy>
34.979741

> <b_lp_Chiralities_Consistent>
1

> <s_lp_Variant>
sdf/actives_sanitized.sdf:93-1

$$$$
sdf/actives_sanitized.sdf:94
                    3D
 Schrodinger Suite 2020-1.
 57 60  0  0  1  0            999 V2000
    0.2713    0.1403   -0.3609 O   0  0  0  0  0  0
    0.4400    5.1004    0.1412 C   0  0  0  0  0  0
    1.5676    5.1728    0.9649 C   0  0  0  0  0  0
    2.2928    6.3499    1.1218 C   0  0  0  0  0  0
    0.0234    6.2449   -0.5521 C   0  0  0  0  0  0
    0.7262    7.4552   -0.4219 C   0  0  0  0  0  0
    1.8664    7.4878    0.4270 C   0  0  0  0  0  0
    2.5990    9.0826    0.4592 S   0  0  0  0  0  0
    1.3913    9.7009   -0.6619 C   0  0  0  0  0  0
    0.4789    8.7200   -1.0243 C   0  0  0  0  0  0
    1.4034   11.0229   -1.0672 C   0  0  0  0  0  0
    2.5662   11.6405   -1.2340 N   0  0  0  0  0  0
    0.2444   11.6315   -1.2850 N   0  3  0  0  0  0
   -0.3118    3.8198    0.0044 C   0  0  0  0  0  0
   -1.7127    3.8054    0.0013 C   0  0  0  0  0  0
   -1.7226    1.4051   -0.2387 C   0  0  0  0  0  0
   -0.3275    1.3824   -0.2419 C   0  0  0  0  0  0
   -2.4144    2.6079   -0.1196 C   0  0  0  0  0  0
    0.3662    2.5986   -0.1197 C   0  0  0  0  0  0
    1.6980    0.0143   -0.4320 C   0  0  2  0  0  0
    2.2386    0.5303   -1.7693 C   0  0  0  0  0  0
    3.4722    1.1872   -1.8068 C   0  0  0  0  0  0
    3.9718    1.6659   -3.0149 C   0  0  0  0  0  0
    3.2382    1.4866   -4.1862 C   0  0  0  0  0  0
    2.0084    0.8319   -4.1578 C   0  0  0  0  0  0
    1.5085    0.3533   -2.9499 C   0  0  0  0  0  0
    3.8588    2.0795   -5.6837 Cl  0  0  0  0  0  0
    2.0611   -1.4675   -0.2126 C   0  0  0  0  0  0
    1.6190   -1.9996    1.1664 C   0  0  0  0  0  0
    2.0335   -3.4527    1.4000 C   0  0  0  0  0  0
    2.9805   -3.7351    2.1363 O   0  0  0  0  0  0
    1.2611   -4.3266    0.7217 O   0  0  0  0  0  0
    1.5019   -5.7231    0.8151 C   0  0  0  0  0  0
    1.8914    4.2963    1.5075 H   0  0  0  0  0  0
    3.1592    6.3798    1.7666 H   0  0  0  0  0  0
   -0.8424    6.1961   -1.1964 H   0  0  0  0  0  0
   -0.3424    8.8959   -1.7031 H   0  0  0  0  0  0
    2.5865   12.6065   -1.5263 H   0  0  0  0  0  0
    3.4269   11.1410   -1.0633 H   0  0  0  0  0  0
    0.2302   12.5969   -1.5799 H   0  0  0  0  0  0
   -2.2679    4.7268    0.1017 H   0  0  0  0  0  0
   -2.2750    0.4811   -0.3298 H   0  0  0  0  0  0
   -3.4944    2.6118   -0.1178 H   0  0  0  0  0  0
    1.4449    2.6113   -0.1248 H   0  0  0  0  0  0
    2.1449    0.5830    0.3865 H   0  0  0  0  0  0
    4.0451    1.3288   -0.9017 H   0  0  0  0  0  0
    4.9252    2.1732   -3.0403 H   0  0  0  0  0  0
    1.4424    0.6938   -5.0675 H   0  0  0  0  0  0
    0.5550   -0.1548   -2.9338 H   0  0  0  0  0  0
    1.6125   -2.0713   -1.0040 H   0  0  0  0  0  0
    3.1416   -1.5878   -0.3148 H   0  0  0  0  0  0
    2.0543   -1.3825    1.9533 H   0  0  0  0  0  0
    0.5374   -1.9161    1.2781 H   0  0  0  0  0  0
    0.8018   -6.2625    0.1771 H   0  0  0  0  0  0
    1.3695   -6.0755    1.8390 H   0  0  0  0  0  0
    2.5144   -5.9700    0.4917 H   0  0  0  0  0  0
   -0.6193   11.1286   -1.1425 H   0  0  0  0  0  0
  1 17  1  0  0  0
  1 20  1  0  0  0
  2  5  2  0  0  0
  2 14  1  0  0  0
  2  3  1  0  0  0
  3  4  2  0  0  0
  3 34  1  0  0  0
  4  7  1  0  0  0
  4 35  1  0  0  0
  5  6  1  0  0  0
  5 36  1  0  0  0
  6 10  1  0  0  0
  6  7  2  0  0  0
  7  8  1  0  0  0
  8  9  1  0  0  0
  9 10  2  0  0  0
  9 11  1  0  0  0
 10 37  1  0  0  0
 11 12  1  0  0  0
 11 13  2  0  0  0
 12 38  1  0  0  0
 12 39  1  0  0  0
 13 40  1  0  0  0
 13 57  1  0  0  0
 14 19  2  0  0  0
 14 15  1  0  0  0
 15 18  2  0  0  0
 15 41  1  0  0  0
 16 18  1  0  0  0
 16 17  2  0  0  0
 16 42  1  0  0  0
 17 19  1  0  0  0
 18 43  1  0  0  0
 19 44  1  0  0  0
 20 21  1  0  0  0
 20 28  1  0  0  0
 20 45  1  0  0  0
 21 22  2  0  0  0
 21 26  1  0  0  0
 22 23  1  0  0  0
 22 46  1  0  0  0
 23 24  2  0  0  0
 23 47  1  0  0  0
 24 25  1  0  0  0
 24 27  1  0  0  0
 25 26  2  0  0  0
 25 48  1  0  0  0
 26 49  1  0  0  0
 28 29  1  0  0  0
 28 50  1  0  0  0
 28 51  1  0  0  0
 29 30  1  0  0  0
 29 52  1  0  0  0
 29 53  1  0  0  0
 30 31  2  0  0  0
 30 32  1  0  0  0
 32 33  1  0  0  0
 33 54  1  0  0  0
 33 55  1  0  0  0
 33 56  1  0  0  0
M  CHG  1  13   1
M  END
> <chembl_id>
CHEMBL596949

> <chembl_pref_name>
None

> <s_m_source_file>
sdf/actives_sanitized.sdf

> <i_m_source_file_index>
94

> <i_lp_mmshare_version>
49012

> <i_m_ct_stereo_status>
1

> <i_f3d_flags>
0

> <s_epik_input>
W2NIXTFbY0hdYyhDbClbY0hdW2NIXWMxW0NASF0oW0NIMl1bQ0gyXUMoPU8pT1tDSDNdKU9jKFtjSF0yKVtjSF1bY0hdW2NIXWMyLWMoW2NIXTMpW2NIXVtjSF1jKGMzNClzYyhbY0hdNCkvQyhbTkgyXSk9Ti9bSF0=

> <s_epik_cmdline>
J2VwaWtfcHl0aG9uJywgJy1waHQnLCAnMC41JywgJy1waCcsICc3LjUnLCAnLW50JywgJy1tYScsICcyMDAnLCAnLWltYWUnLCAnPGluZmlsZS5tYWU+JywgJy1vbWFlJywgJzxvdXRmaWxlLm1hZT4n

> <r_lp_tautomer_probability>
1

> <r_epik_Ionization_Penalty>
  0.0095

> <r_epik_Ionization_Penalty_Charging>
  0.0095

> <r_epik_Ionization_Penalty_Neutral>
  0.0000

> <r_epik_State_Penalty>
 -0.0000

> <r_epik_Charging_Adjusted_Penalty>
0.00945881282357717

> <i_epik_Tot_Q>
1

> <i_epik_Tot_abs_Q>
1

> <s_epik_Chemistry_Notes>
This compound has an ester and may undergo hydrolysis at high or low pH. This compound has an imine and may undergo hydrolysis.

> <s_lp_Force_Field>
OPLS3e

> <r_lp_Energy>
31.694064

> <b_lp_Chiralities_Consistent>
1

> <s_lp_Variant>
sdf/actives_sanitized.sdf:94-1

$$$$
sdf/actives_sanitized.sdf:95
                    3D
 Schrodinger Suite 2020-1.
 65 68  0  0  1  0            999 V2000
   -1.0803    4.4407    0.0240 C   0  0  0  0  0  0
   -1.0669    5.8229   -0.1243 C   0  0  0  0  0  0
   -0.3162    6.4317   -1.1245 C   0  0  0  0  0  0
   -0.3385    3.6116   -0.8309 C   0  0  0  0  0  0
    0.4308    4.1955   -1.8581 C   0  0  0  0  0  0
    0.4293    5.6152   -1.9862 C   0  0  0  0  0  0
    1.4457    6.1443   -3.3157 S   0  0  0  0  0  0
    1.8788    4.4826   -3.6972 C   0  0  0  0  0  0
    1.2597    3.5828   -2.8420 C   0  0  0  0  0  0
    2.7218    4.1880   -4.7531 C   0  0  0  0  0  0
    3.7180    5.0166   -5.0400 N   0  0  0  0  0  0
    2.5102    3.0750   -5.4437 N   0  3  0  0  0  0
   -0.2791    2.2303   -0.7709 O   0  0  0  0  0  0
   -0.9230    1.5246    0.2971 C   0  0  2  0  0  0
   -0.3196    0.1025    0.3777 C   0  0  0  0  0  0
   -2.4395    1.4739    0.1004 C   0  0  0  0  0  0
   -2.9910    1.3997   -1.1840 C   0  0  0  0  0  0
   -4.3730    1.3625   -1.3486 C   0  0  0  0  0  0
   -5.2022    1.3987   -0.2299 C   0  0  0  0  0  0
   -4.6620    1.4701    1.0522 C   0  0  0  0  0  0
   -3.2799    1.5070    1.2174 C   0  0  0  0  0  0
    1.1056    0.0651    0.2766 O   0  0  0  0  0  0
    1.9168    0.5880    1.2205 C   0  0  0  0  0  0
    3.2340    0.4141    0.8157 N   0  0  0  0  0  0
    1.5297    1.1369    2.2561 O   0  0  0  0  0  0
    4.2843    0.9148    1.5551 C   0  0  0  0  0  0
    4.5881    2.2531    1.7992 C   0  0  0  0  0  0
    5.7381    2.1980    2.5532 N   0  0  0  0  0  0
    6.1805    0.9491    2.7486 N   0  0  0  0  0  0
    5.3131    0.1656    2.1496 C   0  0  0  0  0  0
    3.9292    3.5469    1.3602 C   0  0  0  0  0  0
    5.5179   -1.3334    2.1772 C   0  0  0  0  0  0
    6.5362    3.3065    3.0584 C   0  0  0  0  0  0
    2.8519    3.9069    2.3924 N   0  3  0  0  0  0
    2.0845    5.1901    2.0482 C   0  0  0  0  0  0
   -1.6837    4.0250    0.8163 H   0  0  0  0  0  0
   -1.6517    6.4337    0.5482 H   0  0  0  0  0  0
   -0.3142    7.5070   -1.2317 H   0  0  0  0  0  0
    1.3930    2.5130   -2.9109 H   0  0  0  0  0  0
    4.3335    4.8154   -5.8146 H   0  0  0  0  0  0
    3.8465    5.8541   -4.4910 H   0  0  0  0  0  0
    3.1152    2.8397   -6.2167 H   0  0  0  0  0  0
   -0.7000    2.0361    1.2353 H   0  0  0  0  0  0
   -0.7066   -0.4968   -0.4470 H   0  0  0  0  0  0
   -0.6409   -0.3964    1.2935 H   0  0  0  0  0  0
   -2.3525    1.3696   -2.0550 H   0  0  0  0  0  0
   -4.8004    1.3053   -2.3389 H   0  0  0  0  0  0
   -6.2743    1.3700   -0.3579 H   0  0  0  0  0  0
   -5.3123    1.4969    1.9141 H   0  0  0  0  0  0
   -2.8650    1.5627    2.2135 H   0  0  0  0  0  0
    3.4208   -0.1521    0.0008 H   0  0  0  0  0  0
    4.5981    4.4070    1.3070 H   0  0  0  0  0  0
    3.3882    3.4486    0.4174 H   0  0  0  0  0  0
    4.7238   -1.8673    1.6552 H   0  0  0  0  0  0
    5.5397   -1.7186    3.1970 H   0  0  0  0  0  0
    6.4570   -1.6213    1.7040 H   0  0  0  0  0  0
    5.8817    4.1152    3.3842 H   0  0  0  0  0  0
    7.1912    3.6674    2.2651 H   0  0  0  0  0  0
    7.1419    2.9877    3.9089 H   0  0  0  0  0  0
    2.1961    3.1392    2.4548 H   0  0  0  0  0  0
    1.3291    5.3126    2.8247 H   0  0  0  0  0  0
    1.6334    5.0437    1.0667 H   0  0  0  0  0  0
    2.8046    6.0093    2.0517 H   0  0  0  0  0  0
    1.7357    2.4744   -5.2014 H   0  0  0  0  0  0
    3.2857    4.0159    3.2985 H   0  0  0  0  0  0
  1  4  2  0  0  0
  1  2  1  0  0  0
  1 36  1  0  0  0
  2  3  2  0  0  0
  2 37  1  0  0  0
  3  6  1  0  0  0
  3 38  1  0  0  0
  4 13  1  0  0  0
  4  5  1  0  0  0
  5  9  1  0  0  0
  5  6  2  0  0  0
  6  7  1  0  0  0
  7  8  1  0  0  0
  8  9  2  0  0  0
  8 10  1  0  0  0
  9 39  1  0  0  0
 10 11  1  0  0  0
 10 12  2  0  0  0
 11 40  1  0  0  0
 11 41  1  0  0  0
 12 42  1  0  0  0
 12 64  1  0  0  0
 13 14  1  0  0  0
 14 15  1  0  0  0
 14 16  1  0  0  0
 14 43  1  0  0  0
 15 22  1  0  0  0
 15 44  1  0  0  0
 15 45  1  0  0  0
 16 17  2  0  0  0
 16 21  1  0  0  0
 17 18  1  0  0  0
 17 46  1  0  0  0
 18 19  2  0  0  0
 18 47  1  0  0  0
 19 20  1  0  0  0
 19 48  1  0  0  0
 20 21  2  0  0  0
 20 49  1  0  0  0
 21 50  1  0  0  0
 22 23  1  0  0  0
 23 24  1  0  0  0
 23 25  2  0  0  0
 24 26  1  0  0  0
 24 51  1  0  0  0
 26 27  2  0  0  0
 26 30  1  0  0  0
 27 28  1  0  0  0
 27 31  1  0  0  0
 28 29  1  0  0  0
 28 33  1  0  0  0
 29 30  2  0  0  0
 30 32  1  0  0  0
 31 34  1  0  0  0
 31 52  1  0  0  0
 31 53  1  0  0  0
 32 54  1  0  0  0
 32 55  1  0  0  0
 32 56  1  0  0  0
 33 57  1  0  0  0
 33 58  1  0  0  0
 33 59  1  0  0  0
 34 35  1  0  0  0
 34 60  1  0  0  0
 34 65  1  0  0  0
 35 61  1  0  0  0
 35 62  1  0  0  0
 35 63  1  0  0  0
M  CHG  2  12   1  34   1
M  END
> <chembl_id>
CHEMBL602082

> <chembl_pref_name>
None

> <s_m_source_file>
sdf/actives_sanitized.sdf

> <i_m_source_file_index>
95

> <i_lp_mmshare_version>
49012

> <i_m_ct_stereo_status>
1

> <i_f3d_flags>
0

> <s_epik_input>
W0hdXE49QyhbTkgyXSlcYyhbY0hdMSlzYyhjMTIpW2NIXVtjSF1bY0hdYzJPW0NAQEhdKGMzW2NIXVtjSF1bY0hdW2NIXVtjSF0zKVtDSDJdT0MoPU8pW05IXWM0YyhbQ0gyXVtOSF1bQ0gzXSluKFtDSDNdKW5jNFtDSDNd

> <s_epik_cmdline>
J2VwaWtfcHl0aG9uJywgJy1waHQnLCAnMC41JywgJy1waCcsICc3LjUnLCAnLW50JywgJy1tYScsICcyMDAnLCAnLWltYWUnLCAnPGluZmlsZS5tYWU+JywgJy1vbWFlJywgJzxvdXRmaWxlLm1hZT4n

> <r_lp_tautomer_probability>
1

> <r_epik_Ionization_Penalty>
  0.0281

> <r_epik_Ionization_Penalty_Charging>
  0.0281

> <r_epik_Ionization_Penalty_Neutral>
  0.0000

> <r_epik_State_Penalty>
 -0.0000

> <r_epik_Charging_Adjusted_Penalty>
0.0280727403770466

> <i_epik_Tot_Q>
2

> <i_epik_Tot_abs_Q>
2

> <s_epik_Chemistry_Notes>
This compound has an ester and may undergo hydrolysis at high or low pH. This compound has an imine and may undergo hydrolysis.

> <s_lp_Force_Field>
OPLS3e

> <r_lp_Energy>
35.965996

> <b_lp_Chiralities_Consistent>
1

> <s_lp_Variant>
sdf/actives_sanitized.sdf:95-1

$$$$
sdf/actives_sanitized.sdf:96
                    3D
 Schrodinger Suite 2020-1.
 67 72  0  0  1  0            999 V2000
   -0.0960   -0.1554    0.0376 C   0  0  0  0  0  0
    5.2559   -1.3919    6.9309 N   0  0  0  0  0  0
    6.5885   -1.1683    7.2200 C   0  0  0  0  0  0
   -0.9637    0.9956   -0.0072 C   0  0  0  0  0  0
    6.9591   -1.5250    8.4208 N   0  0  0  0  0  0
    2.0431   -0.9018    1.1884 C   0  0  0  0  0  0
    1.4304   -0.1423   -0.0088 C   0  0  1  0  0  0
   -0.9467   -1.2493    0.0827 C   0  0  0  0  0  0
   -2.2541   -0.8419    0.0873 N   0  0  0  0  0  0
    4.7220   -1.9574    8.0818 C   0  0  0  0  0  0
   -0.7383    2.3798   -0.0826 C   0  0  0  0  0  0
   -1.5819    4.7205   -0.1879 C   0  0  0  0  0  0
   -1.8168    3.2765   -0.1093 C   0  0  0  0  0  0
    2.6921   -0.1421    2.0986 N   0  0  0  0  0  0
   -2.3113    0.5319    0.0325 C   0  0  0  0  0  0
    5.8180   -2.0217    8.9859 C   0  0  0  0  0  0
    4.6209   -1.1252    5.6977 C   0  0  0  0  0  0
   -2.4482    5.5520    0.3795 N   0  3  0  0  0  0
    1.9652   -0.6752   -1.3643 C   0  0  0  0  0  0
    1.9331   -2.1280    1.2500 O   0  0  0  0  0  0
   -3.1212    2.7666   -0.0601 C   0  0  0  0  0  0
   -3.4019    1.4031    0.0091 C   0  0  0  0  0  0
    4.9043    0.0640    5.0190 C   0  0  0  0  0  0
    3.6675   -2.0104    5.1851 C   0  0  0  0  0  0
    3.3136   -0.5342    3.2983 C   0  0  0  0  0  0
   -0.5074    5.1694   -0.8263 N   0  0  0  0  0  0
    1.5143    0.1598   -2.5586 C   0  0  0  0  0  0
    0.6649    1.7119   -4.7072 C   0  0  0  0  0  0
    4.2507    0.3568    3.8257 C   0  0  0  0  0  0
    3.0165   -1.7191    3.9895 C   0  0  0  0  0  0
    0.2386    2.4895   -5.7832 N   0  0  0  0  0  0
    0.4332   -0.2596   -3.3385 C   0  0  0  0  0  0
    2.1715    1.3555   -2.8592 C   0  0  0  0  0  0
    1.7466    2.1326   -3.9337 C   0  0  0  0  0  0
    0.0074    0.5175   -4.4125 C   0  0  0  0  0  0
    3.4418   -2.3983    8.4472 C   0  0  0  0  0  0
    5.6356   -2.5460   10.2738 C   0  0  0  0  0  0
    3.2945   -2.9151    9.7364 C   0  0  0  0  0  0
    4.3626   -2.9903   10.6296 C   0  0  0  0  0  0
    7.2364   -0.7410    6.4681 H   0  0  0  0  0  0
    1.7652    0.8943    0.0667 H   0  0  0  0  0  0
   -0.7201   -2.3055    0.1126 H   0  0  0  0  0  0
   -3.0263   -1.4924    0.1190 H   0  0  0  0  0  0
    0.2732    2.7555   -0.1137 H   0  0  0  0  0  0
    2.8029    0.8349    1.8705 H   0  0  0  0  0  0
   -3.2540    5.1817    0.8620 H   0  0  0  0  0  0
    3.0572   -0.6919   -1.3605 H   0  0  0  0  0  0
    1.6713   -1.7162   -1.5148 H   0  0  0  0  0  0
   -3.9565    3.4507   -0.0888 H   0  0  0  0  0  0
   -4.4210    1.0453    0.0375 H   0  0  0  0  0  0
    5.6197    0.7703    5.4149 H   0  0  0  0  0  0
    3.4324   -2.9313    5.6982 H   0  0  0  0  0  0
   -0.3357    6.1622   -0.8873 H   0  0  0  0  0  0
    0.1279    4.5143   -1.2578 H   0  0  0  0  0  0
    4.4785    1.2818    3.3150 H   0  0  0  0  0  0
    2.2767   -2.4182    3.6321 H   0  0  0  0  0  0
    0.7834    3.2962   -6.0519 H   0  0  0  0  0  0
   -0.4806    2.1286   -6.3935 H   0  0  0  0  0  0
   -0.0822   -1.1811   -3.1095 H   0  0  0  0  0  0
    3.0071    1.6850   -2.2590 H   0  0  0  0  0  0
    2.2593    3.0565   -4.1597 H   0  0  0  0  0  0
   -0.8312    0.1884   -5.0091 H   0  0  0  0  0  0
    2.5968   -2.3394    7.7777 H   0  0  0  0  0  0
    6.4553   -2.6040   10.9749 H   0  0  0  0  0  0
    2.3225   -3.2643   10.0530 H   0  0  0  0  0  0
    4.1995   -3.3970   11.6170 H   0  0  0  0  0  0
   -2.2962    6.5489    0.3310 H   0  0  0  0  0  0
  1  4  1  0  0  0
  1  7  1  0  0  0
  1  8  2  0  0  0
  2 17  1  0  0  0
  2  3  1  0  0  0
  2 10  1  0  0  0
  3  5  2  0  0  0
  3 40  1  0  0  0
  4 11  2  0  0  0
  4 15  1  0  0  0
  5 16  1  0  0  0
  6  7  1  0  0  0
  6 14  1  0  0  0
  6 20  2  0  0  0
  7 19  1  0  0  0
  7 41  1  0  0  0
  8  9  1  0  0  0
  8 42  1  0  0  0
  9 15  1  0  0  0
  9 43  1  0  0  0
 10 16  2  0  0  0
 10 36  1  0  0  0
 11 13  1  0  0  0
 11 44  1  0  0  0
 12 13  1  0  0  0
 12 18  2  0  0  0
 12 26  1  0  0  0
 13 21  2  0  0  0
 14 25  1  0  0  0
 14 45  1  0  0  0
 15 22  2  0  0  0
 16 37  1  0  0  0
 17 23  2  0  0  0
 17 24  1  0  0  0
 18 46  1  0  0  0
 18 67  1  0  0  0
 19 27  1  0  0  0
 19 47  1  0  0  0
 19 48  1  0  0  0
 21 22  1  0  0  0
 21 49  1  0  0  0
 22 50  1  0  0  0
 23 29  1  0  0  0
 23 51  1  0  0  0
 24 30  2  0  0  0
 24 52  1  0  0  0
 25 29  2  0  0  0
 25 30  1  0  0  0
 26 53  1  0  0  0
 26 54  1  0  0  0
 27 32  2  0  0  0
 27 33  1  0  0  0
 28 35  2  0  0  0
 28 31  1  0  0  0
 28 34  1  0  0  0
 29 55  1  0  0  0
 30 56  1  0  0  0
 31 57  1  0  0  0
 31 58  1  0  0  0
 32 35  1  0  0  0
 32 59  1  0  0  0
 33 34  2  0  0  0
 33 60  1  0  0  0
 34 61  1  0  0  0
 35 62  1  0  0  0
 36 38  2  0  0  0
 36 63  1  0  0  0
 37 39  2  0  0  0
 37 64  1  0  0  0
 38 39  1  0  0  0
 38 65  1  0  0  0
 39 66  1  0  0  0
M  CHG  1  18   1
M  END
> <chembl_id>
CHEMBL362184

> <chembl_pref_name>
None

> <s_m_source_file>
sdf/actives_sanitized.sdf

> <i_m_source_file_index>
96

> <i_lp_mmshare_version>
49012

> <i_m_ct_stereo_status>
1

> <i_f3d_flags>
0

> <s_epik_input>
W0hdXE49QyhbTkgyXSlcYyhbY0hdMSlbY0hdW2NIXWMoYzEyKVtuSF1bY0hdYzJbQ0BIXShbQ0gyXWMzW2NIXVtjSF1jKFtOSDJdKVtjSF1bY0hdMylDKD1PKVtOSF1jKFtjSF1bY0hdNClbY0hdW2NIXWM0LW41W2NIXW5jKGM1NilbY0hdW2NIXVtjSF1bY0hdNg==

> <s_epik_cmdline>
J2VwaWtfcHl0aG9uJywgJy1waHQnLCAnMC41JywgJy1waCcsICc3LjUnLCAnLW50JywgJy1tYScsICcyMDAnLCAnLWltYWUnLCAnPGluZmlsZS5tYWU+JywgJy1vbWFlJywgJzxvdXRmaWxlLm1hZT4n

> <r_epik_Ionization_Penalty>
  0.0123

> <r_epik_Ionization_Penalty_Charging>
  0.0010

> <r_epik_Ionization_Penalty_Neutral>
  0.0114

> <r_epik_State_Penalty>
  0.0078

> <r_epik_Charging_Adjusted_Penalty>
0.00877873498810205

> <i_epik_Tot_Q>
1

> <i_epik_Tot_abs_Q>
1

> <s_epik_Chemistry_Notes>
This compound has an imine and may undergo hydrolysis.

> <s_lp_Force_Field>
OPLS3e

> <r_lp_Energy>
48.434584

> <b_lp_Chiralities_Consistent>
1

> <s_lp_Variant>
sdf/actives_sanitized.sdf:96-1

$$$$
sdf/actives_sanitized.sdf:97
                    3D
 Schrodinger Suite 2020-1.
 63 68  0  0  1  0            999 V2000
   -0.5623    1.6237   -0.0581 C   0  0  0  0  0  0
   -1.5366    2.2104    0.7675 C   0  0  0  0  0  0
   -1.9019    3.5436    0.6006 C   0  0  0  0  0  0
   -1.3091    4.3039   -0.4023 C   0  0  0  0  0  0
   -0.3581    3.7393   -1.2454 C   0  0  0  0  0  0
    0.0056    2.4068   -1.0777 C   0  0  0  0  0  0
   -0.3873   -5.1355   -3.7850 C   0  0  0  0  0  0
   -0.2074   -5.3452   -2.4178 C   0  0  0  0  0  0
   -0.6990   -2.7449   -3.4386 C   0  0  0  0  0  0
   -0.6280   -3.8548   -4.2776 C   0  0  0  0  0  0
   -0.5171   -2.9611   -2.0654 C   0  0  0  0  0  0
   -0.2746   -4.2563   -1.5267 C   0  0  0  0  0  0
   -0.1492   -4.1166   -0.0948 C   0  0  0  0  0  0
   -0.5244   -2.0736   -1.0067 N   0  0  0  0  0  0
   -0.3373   -2.7640    0.1852 C   0  0  0  0  0  0
   -0.2934   -2.0237    1.5258 C   0  0  0  0  0  0
   -0.7165   -0.5478    1.3666 C   0  0  0  0  0  0
   -0.1442    0.1295    0.0825 C   0  0  1  0  0  0
   -0.7895   -0.6292   -1.1138 C   0  0  0  0  0  0
    1.3332    0.0423    0.0101 N   0  0  0  0  0  0
    2.2246    0.5717    0.8712 C   0  0  0  0  0  0
    3.6612    0.2940    0.5243 C   0  0  0  0  0  0
    1.9361    1.2625    1.8482 O   0  0  0  0  0  0
    4.3173   -0.8435    1.0354 C   0  0  0  0  0  0
    5.6508   -1.0892    0.7062 C   0  0  0  0  0  0
    6.3522   -0.2161   -0.1299 C   0  0  0  0  0  0
    5.7037    0.9133   -0.6370 C   0  0  0  0  0  0
    4.3714    1.1740   -0.3163 C   0  0  0  0  0  0
    3.6507    2.6029   -0.9865 Cl  0  0  0  0  0  0
    7.7013   -0.4709   -0.4575 N   0  0  0  0  0  0
   -0.3155   -6.3174   -4.7354 C   0  0  0  0  0  0
    3.5287   -1.9817    2.0787 Cl  0  0  0  0  0  0
    8.6541   -1.1542    0.2667 C   0  0  0  0  0  0
    9.8093   -1.1931   -0.3489 N   0  0  0  0  0  0
    9.6460   -0.5099   -1.5495 N   0  0  0  0  0  0
    8.4032   -0.0988   -1.5832 C   0  0  0  0  0  0
    0.1195   -5.1545    0.9020 C   0  0  0  0  0  0
    0.2837   -6.3704    0.5855 N   0  0  0  0  0  0
    0.5285   -7.1582    1.7177 O   0  0  0  0  0  0
   -2.0224    1.6562    1.5549 H   0  0  0  0  0  0
   -2.6447    3.9862    1.2480 H   0  0  0  0  0  0
   -1.5925    5.3382   -0.5305 H   0  0  0  0  0  0
    0.0945    4.3312   -2.0273 H   0  0  0  0  0  0
    0.7392    1.9819   -1.7472 H   0  0  0  0  0  0
   -0.0226   -6.3446   -2.0535 H   0  0  0  0  0  0
   -0.8863   -1.7620   -3.8448 H   0  0  0  0  0  0
   -0.7645   -3.7084   -5.3394 H   0  0  0  0  0  0
   -0.9360   -2.5098    2.2604 H   0  0  0  0  0  0
    0.7163   -2.0639    1.9314 H   0  0  0  0  0  0
   -1.8075   -0.5336    1.3311 H   0  0  0  0  0  0
   -0.4459    0.0103    2.2640 H   0  0  0  0  0  0
   -0.4026   -0.2594   -2.0649 H   0  0  0  0  0  0
   -1.8710   -0.4826   -1.1353 H   0  0  0  0  0  0
    1.6806   -0.7156   -0.5591 H   0  0  0  0  0  0
    6.1333   -1.9708    1.1027 H   0  0  0  0  0  0
    6.2316    1.6043   -1.2784 H   0  0  0  0  0  0
   -0.3773   -6.0125   -5.7809 H   0  0  0  0  0  0
   -1.1242   -7.0184   -4.5268 H   0  0  0  0  0  0
    0.6243   -6.8531   -4.5970 H   0  0  0  0  0  0
    8.4209   -1.5800    1.2314 H   0  0  0  0  0  0
    7.9282    0.4598   -2.3762 H   0  0  0  0  0  0
    0.1640   -4.7763    1.9216 H   0  0  0  0  0  0
    0.6289   -8.0335    1.3354 H   0  0  0  0  0  0
  1  2  2  0  0  0
  1  6  1  0  0  0
  1 18  1  0  0  0
  2  3  1  0  0  0
  2 40  1  0  0  0
  3  4  2  0  0  0
  3 41  1  0  0  0
  4  5  1  0  0  0
  4 42  1  0  0  0
  5  6  2  0  0  0
  5 43  1  0  0  0
  6 44  1  0  0  0
  7  8  2  0  0  0
  7 10  1  0  0  0
  7 31  1  0  0  0
  8 12  1  0  0  0
  8 45  1  0  0  0
  9 11  1  0  0  0
  9 10  2  0  0  0
  9 46  1  0  0  0
 10 47  1  0  0  0
 11 12  2  0  0  0
 11 14  1  0  0  0
 12 13  1  0  0  0
 13 15  2  0  0  0
 13 37  1  0  0  0
 14 15  1  0  0  0
 14 19  1  0  0  0
 15 16  1  0  0  0
 16 17  1  0  0  0
 16 48  1  0  0  0
 16 49  1  0  0  0
 17 18  1  0  0  0
 17 50  1  0  0  0
 17 51  1  0  0  0
 18 19  1  0  0  0
 18 20  1  0  0  0
 19 52  1  0  0  0
 19 53  1  0  0  0
 20 21  1  0  0  0
 20 54  1  0  0  0
 21 22  1  0  0  0
 21 23  2  0  0  0
 22 24  2  0  0  0
 22 28  1  0  0  0
 24 25  1  0  0  0
 24 32  1  0  0  0
 25 26  2  0  0  0
 25 55  1  0  0  0
 26 27  1  0  0  0
 26 30  1  0  0  0
 27 28  2  0  0  0
 27 56  1  0  0  0
 28 29  1  0  0  0
 30 33  1  0  0  0
 30 36  1  0  0  0
 31 57  1  0  0  0
 31 58  1  0  0  0
 31 59  1  0  0  0
 33 34  2  0  0  0
 33 60  1  0  0  0
 34 35  1  0  0  0
 35 36  2  0  0  0
 36 61  1  0  0  0
 37 38  2  0  0  0
 37 62  1  0  0  0
 38 39  1  0  0  0
 39 63  1  0  0  0
M  END
> <chembl_id>
CHEMBL3628962

> <chembl_pref_name>
None

> <i_m_ct_stereo_status>
1

> <s_m_source_file>
sdf/actives_sanitized.sdf

> <i_m_source_file_index>
97

> <i_lp_mmshare_version>
49012

> <i_f3d_flags>
0

> <s_epik_input>
W2NIXTFbY0hdYyhbQ0gzXSlbY0hdYyhjMTIpYygvW0NIXT1OL1tPSF0pYzNuMltDSDJdW0NAXShbQ0gyXVtDSDJdMykoYzRbY0hdW2NIXVtjSF1bY0hdW2NIXTQpW05IXUMoPU8pYzVjKENsKVtjSF1jKFtjSF1jNUNsKS1uNltjSF1ubltjSF02

> <s_epik_cmdline>
J2VwaWtfcHl0aG9uJywgJy1waHQnLCAnMC41JywgJy1waCcsICc3LjUnLCAnLW50JywgJy1tYScsICcyMDAnLCAnLWltYWUnLCAnPGluZmlsZS5tYWU+JywgJy1vbWFlJywgJzxvdXRmaWxlLm1hZT4n

> <r_lp_tautomer_probability>
1

> <r_epik_Ionization_Penalty>
  0.0003

> <r_epik_Ionization_Penalty_Charging>
  0.0000

> <r_epik_Ionization_Penalty_Neutral>
  0.0003

> <r_epik_State_Penalty>
 -0.0000

> <r_epik_Charging_Adjusted_Penalty>
0

> <i_epik_Tot_Q>
0

> <i_epik_Tot_abs_Q>
0

> <s_epik_Chemistry_Notes>
This compound has an imine and may undergo hydrolysis.

> <s_lp_Force_Field>
OPLS3e

> <r_lp_Energy>
47.264841

> <b_lp_Chiralities_Consistent>
1

> <s_lp_Variant>
sdf/actives_sanitized.sdf:97-1

$$$$
sdf/actives_sanitized.sdf:98
                    3D
 Schrodinger Suite 2020-1.
 63 69  0  0  1  0            999 V2000
   -0.5586    1.5770    0.0947 C   0  0  0  0  0  0
   -1.5743    2.1052    0.9101 C   0  0  0  0  0  0
   -1.9651    3.4362    0.7890 C   0  0  0  0  0  0
   -1.3566    4.2532   -0.1583 C   0  0  0  0  0  0
   -0.3639    3.7477   -0.9910 C   0  0  0  0  0  0
    0.0251    2.4174   -0.8690 C   0  0  0  0  0  0
   -0.4347   -5.0330   -3.8983 C   0  0  0  0  0  0
   -0.2199   -5.2945   -2.5452 C   0  0  0  0  0  0
   -0.7465   -2.6583   -3.4523 C   0  0  0  0  0  0
   -0.6950   -3.7355   -4.3347 C   0  0  0  0  0  0
   -0.5279   -2.9261   -2.0933 C   0  0  0  0  0  0
   -0.2718   -4.2408   -1.6139 C   0  0  0  0  0  0
   -0.1121   -4.1525   -0.1851 C   0  0  0  0  0  0
   -0.5054   -2.0790   -1.0003 N   0  0  0  0  0  0
   -0.2976   -2.8128    0.1629 C   0  0  0  0  0  0
   -0.2466   -2.1248    1.5301 C   0  0  0  0  0  0
   -0.6883   -0.6500    1.4312 C   0  0  0  0  0  0
   -0.1250    0.0823    0.1736 C   0  0  1  0  0  0
   -0.7701   -0.6315   -1.0502 C   0  0  0  0  0  0
    1.3533    0.0081    0.0936 N   0  0  0  0  0  0
    2.2448    0.4979    0.9778 C   0  0  0  0  0  0
    3.6827    0.2515    0.6101 C   0  0  0  0  0  0
    1.9554    1.1347    1.9907 O   0  0  0  0  0  0
    4.3314   -0.9383    0.9968 C   0  0  0  0  0  0
    5.6640   -1.1552    0.6457 C   0  0  0  0  0  0
    6.3733   -0.2016   -0.0892 C   0  0  0  0  0  0
    5.7342    0.9816   -0.4705 C   0  0  0  0  0  0
    4.4016    1.2136   -0.1276 C   0  0  0  0  0  0
    3.6898    2.7092   -0.6441 Cl  0  0  0  0  0  0
    7.7203   -0.4326   -0.4414 N   0  0  0  0  0  0
   -0.3822   -6.1775   -4.8942 C   0  0  0  0  0  0
    3.5367   -2.1792    1.9099 Cl  0  0  0  0  0  0
    8.3663   -1.6322   -0.6470 C   0  0  0  0  0  0
    9.6263   -1.4675   -0.9627 N   0  0  0  0  0  0
    9.8601   -0.0962   -0.9738 N   0  0  0  0  0  0
    8.7259    0.4820   -0.6664 C   0  0  0  0  0  0
    0.1890   -5.2643    0.7434 C   0  0  0  0  0  0
    0.8000   -5.0965    1.8953 N   0  0  0  0  0  0
    0.8910   -6.3511    2.4493 N   0  0  0  0  0  0
    0.3128   -7.2328    1.5754 N   0  5  0  0  0  0
   -0.1294   -6.5139    0.4902 N   0  0  0  0  0  0
   -2.0763    1.5054    1.6525 H   0  0  0  0  0  0
   -2.7411    3.8326    1.4272 H   0  0  0  0  0  0
   -1.6615    5.2851   -0.2521 H   0  0  0  0  0  0
    0.0997    4.3826   -1.7315 H   0  0  0  0  0  0
    0.7891    2.0390   -1.5323 H   0  0  0  0  0  0
   -0.0196   -6.3047   -2.2203 H   0  0  0  0  0  0
   -0.9464   -1.6612   -3.8154 H   0  0  0  0  0  0
   -0.8609   -3.5499   -5.3860 H   0  0  0  0  0  0
   -0.8748   -2.6486    2.2512 H   0  0  0  0  0  0
    0.7662   -2.1668    1.9250 H   0  0  0  0  0  0
   -1.7793   -0.6511    1.3964 H   0  0  0  0  0  0
   -0.4248   -0.1236    2.3495 H   0  0  0  0  0  0
   -0.3840   -0.2255   -1.9867 H   0  0  0  0  0  0
   -1.8518   -0.4859   -1.0668 H   0  0  0  0  0  0
    1.7025   -0.7232   -0.5085 H   0  0  0  0  0  0
    6.1438   -2.0717    0.9580 H   0  0  0  0  0  0
    6.2648    1.7286   -1.0434 H   0  0  0  0  0  0
   -0.5380   -5.8420   -5.9204 H   0  0  0  0  0  0
   -1.1442   -6.9194   -4.6534 H   0  0  0  0  0  0
    0.5861   -6.6764   -4.8411 H   0  0  0  0  0  0
    7.8400   -2.5707   -0.5539 H   0  0  0  0  0  0
    8.5448    1.5428   -0.5744 H   0  0  0  0  0  0
  1  2  2  0  0  0
  1  6  1  0  0  0
  1 18  1  0  0  0
  2  3  1  0  0  0
  2 42  1  0  0  0
  3  4  2  0  0  0
  3 43  1  0  0  0
  4  5  1  0  0  0
  4 44  1  0  0  0
  5  6  2  0  0  0
  5 45  1  0  0  0
  6 46  1  0  0  0
  7  8  2  0  0  0
  7 10  1  0  0  0
  7 31  1  0  0  0
  8 12  1  0  0  0
  8 47  1  0  0  0
  9 11  1  0  0  0
  9 10  2  0  0  0
  9 48  1  0  0  0
 10 49  1  0  0  0
 11 12  2  0  0  0
 11 14  1  0  0  0
 12 13  1  0  0  0
 13 15  2  0  0  0
 13 37  1  0  0  0
 14 15  1  0  0  0
 14 19  1  0  0  0
 15 16  1  0  0  0
 16 17  1  0  0  0
 16 50  1  0  0  0
 16 51  1  0  0  0
 17 18  1  0  0  0
 17 52  1  0  0  0
 17 53  1  0  0  0
 18 19  1  0  0  0
 18 20  1  0  0  0
 19 54  1  0  0  0
 19 55  1  0  0  0
 20 21  1  0  0  0
 20 56  1  0  0  0
 21 22  1  0  0  0
 21 23  2  0  0  0
 22 24  2  0  0  0
 22 28  1  0  0  0
 24 25  1  0  0  0
 24 32  1  0  0  0
 25 26  2  0  0  0
 25 57  1  0  0  0
 26 27  1  0  0  0
 26 30  1  0  0  0
 27 28  2  0  0  0
 27 58  1  0  0  0
 28 29  1  0  0  0
 30 33  1  0  0  0
 30 36  1  0  0  0
 31 59  1  0  0  0
 31 60  1  0  0  0
 31 61  1  0  0  0
 33 34  2  0  0  0
 33 62  1  0  0  0
 34 35  1  0  0  0
 35 36  2  0  0  0
 36 63  1  0  0  0
 37 38  1  0  0  0
 37 41  2  0  0  0
 38 39  2  0  0  0
 39 40  1  0  0  0
 40 41  1  0  0  0
M  CHG  1  40  -1
M  END
> <chembl_id>
CHEMBL3628965

> <chembl_pref_name>
None

> <i_m_ct_stereo_status>
1

> <s_m_source_file>
sdf/actives_sanitized.sdf

> <i_m_source_file_index>
98

> <i_lp_mmshare_version>
49012

> <i_f3d_flags>
0

> <s_epik_input>
W2NIXTFbY0hdYyhbQ0gzXSlbY0hdYyhjMTIpYygtYzNubltuSF1uMyljNG4yW0NIMl1bQ0BdKFtDSDJdW0NIMl00KShjNVtjSF1bY0hdW2NIXVtjSF1bY0hdNSlbTkhdQyg9TyljNmMoQ2wpW2NIXWMoW2NIXWM2Q2wpLW43W2NIXW5uW2NIXTc=

> <s_epik_cmdline>
J2VwaWtfcHl0aG9uJywgJy1waHQnLCAnMC41JywgJy1waCcsICc3LjUnLCAnLW50JywgJy1tYScsICcyMDAnLCAnLWltYWUnLCAnPGluZmlsZS5tYWU+JywgJy1vbWFlJywgJzxvdXRmaWxlLm1hZT4n

> <r_lp_tautomer_probability>
1

> <r_epik_Ionization_Penalty>
  0.0005

> <r_epik_Ionization_Penalty_Charging>
  0.0003

> <r_epik_Ionization_Penalty_Neutral>
  0.0002

> <r_epik_State_Penalty>
 -0.0000

> <r_epik_Charging_Adjusted_Penalty>
0.000302746995691915

> <i_epik_Tot_Q>
-1

> <i_epik_Tot_abs_Q>
1

> <s_lp_Force_Field>
OPLS3e

> <r_lp_Energy>
46.140735

> <b_lp_Chiralities_Consistent>
1

> <s_lp_Variant>
sdf/actives_sanitized.sdf:98-1

$$$$
sdf/actives_sanitized.sdf:99
                    3D
 Schrodinger Suite 2020-1.
 64 69  0  0  1  0            999 V2000
   -0.5233    1.6682   -0.1006 C   0  0  0  0  0  0
   -1.5088    2.2871    0.6876 C   0  0  0  0  0  0
   -1.8548    3.6195    0.4792 C   0  0  0  0  0  0
   -1.2303    4.3476   -0.5283 C   0  0  0  0  0  0
   -0.2657    3.7515   -1.3337 C   0  0  0  0  0  0
    0.0783    2.4195   -1.1248 C   0  0  0  0  0  0
   -0.3150   -5.1529   -3.6903 C   0  0  0  0  0  0
   -0.1724   -5.3442   -2.3160 C   0  0  0  0  0  0
   -0.6476   -2.7601   -3.3828 C   0  0  0  0  0  0
   -0.5500   -3.8802   -4.2051 C   0  0  0  0  0  0
   -0.4971   -2.9567   -2.0025 C   0  0  0  0  0  0
   -0.2666   -4.2441   -1.4402 C   0  0  0  0  0  0
   -0.1767   -4.0806   -0.0085 C   0  0  0  0  0  0
   -0.5269   -2.0516   -0.9585 N   0  0  0  0  0  0
   -0.3653   -2.7182    0.2514 C   0  0  0  0  0  0
   -0.3503   -1.9443    1.5752 C   0  0  0  0  0  0
   -0.7352   -0.4632    1.3748 C   0  0  0  0  0  0
   -0.1339    0.1704    0.0824 C   0  0  1  0  0  0
   -0.7821   -0.6081   -1.0992 C   0  0  0  0  0  0
    1.3422    0.0503    0.0303 N   0  0  0  0  0  0
    2.2368    0.5845    0.8851 C   0  0  0  0  0  0
    3.6693    0.2460    0.5744 C   0  0  0  0  0  0
    1.9553    1.3212    1.8303 O   0  0  0  0  0  0
    4.2768   -0.8932    1.1383 C   0  0  0  0  0  0
    5.6050   -1.1987    0.8404 C   0  0  0  0  0  0
    6.3547   -0.3858   -0.0161 C   0  0  0  0  0  0
    5.7512    0.7480   -0.5737 C   0  0  0  0  0  0
    4.4240    1.0678   -0.2859 C   0  0  0  0  0  0
    3.7647    2.4936   -1.0226 Cl  0  0  0  0  0  0
    7.7025   -0.7121   -0.3076 N   0  0  0  0  0  0
   -0.2015   -6.3443   -4.6247 C   0  0  0  0  0  0
    8.5795   -1.5106    0.3836 C   0  0  0  0  0  0
    9.7385   -1.5609   -0.2199 N   0  0  0  0  0  0
    9.5420   -0.7788   -1.2698 C   0  0  0  0  0  0
    8.3452   -0.2416   -1.3873 N   0  0  0  0  0  0
    0.0713   -5.1409    0.9839 C   0  0  0  0  0  0
    0.2923   -4.7891    2.1641 O   0  0  0  0  0  0
    0.0488   -6.3243    0.5802 O   0  5  0  0  0  0
    3.4332   -1.9631    2.2105 Cl  0  0  0  0  0  0
   10.6247   -0.5356   -2.2974 C   0  0  0  0  0  0
   -2.0197    1.7584    1.4765 H   0  0  0  0  0  0
   -2.6079    4.0859    1.0972 H   0  0  0  0  0  0
   -1.5000    5.3811   -0.6891 H   0  0  0  0  0  0
    0.2117    4.3181   -2.1195 H   0  0  0  0  0  0
    0.8216    1.9693   -1.7667 H   0  0  0  0  0  0
    0.0093   -6.3379   -1.9343 H   0  0  0  0  0  0
   -0.8277   -1.7836   -3.8072 H   0  0  0  0  0  0
   -0.6587   -3.7483   -5.2719 H   0  0  0  0  0  0
   -1.0259   -2.4002    2.2995 H   0  0  0  0  0  0
    0.6443   -1.9962    2.0140 H   0  0  0  0  0  0
   -1.8251   -0.4266    1.3263 H   0  0  0  0  0  0
   -0.4619    0.1100    2.2619 H   0  0  0  0  0  0
   -0.3883   -0.2615   -2.0561 H   0  0  0  0  0  0
   -1.8625   -0.4540   -1.1260 H   0  0  0  0  0  0
    1.6760   -0.7376   -0.5055 H   0  0  0  0  0  0
    6.0427   -2.0836    1.2790 H   0  0  0  0  0  0
    6.3108    1.3953   -1.2340 H   0  0  0  0  0  0
   -0.1790   -6.0459   -5.6737 H   0  0  0  0  0  0
   -1.0363   -7.0284   -4.4696 H   0  0  0  0  0  0
    0.7167   -6.8955   -4.4181 H   0  0  0  0  0  0
    8.2963   -2.0017    1.3026 H   0  0  0  0  0  0
   10.2224   -0.6733   -3.3018 H   0  0  0  0  0  0
   11.4650   -1.2267   -2.2218 H   0  0  0  0  0  0
   10.9762    0.4964   -2.2891 H   0  0  0  0  0  0
  1  2  2  0  0  0
  1  6  1  0  0  0
  1 18  1  0  0  0
  2  3  1  0  0  0
  2 41  1  0  0  0
  3  4  2  0  0  0
  3 42  1  0  0  0
  4  5  1  0  0  0
  4 43  1  0  0  0
  5  6  2  0  0  0
  5 44  1  0  0  0
  6 45  1  0  0  0
  7  8  2  0  0  0
  7 10  1  0  0  0
  7 31  1  0  0  0
  8 12  1  0  0  0
  8 46  1  0  0  0
  9 11  1  0  0  0
  9 10  2  0  0  0
  9 47  1  0  0  0
 10 48  1  0  0  0
 11 12  2  0  0  0
 11 14  1  0  0  0
 12 13  1  0  0  0
 13 15  2  0  0  0
 13 36  1  0  0  0
 14 15  1  0  0  0
 14 19  1  0  0  0
 15 16  1  0  0  0
 16 17  1  0  0  0
 16 49  1  0  0  0
 16 50  1  0  0  0
 17 18  1  0  0  0
 17 51  1  0  0  0
 17 52  1  0  0  0
 18 19  1  0  0  0
 18 20  1  0  0  0
 19 53  1  0  0  0
 19 54  1  0  0  0
 20 21  1  0  0  0
 20 55  1  0  0  0
 21 22  1  0  0  0
 21 23  2  0  0  0
 22 24  2  0  0  0
 22 28  1  0  0  0
 24 25  1  0  0  0
 24 39  1  0  0  0
 25 26  2  0  0  0
 25 56  1  0  0  0
 26 27  1  0  0  0
 26 30  1  0  0  0
 27 28  2  0  0  0
 27 57  1  0  0  0
 28 29  1  0  0  0
 30 32  1  0  0  0
 30 35  1  0  0  0
 31 58  1  0  0  0
 31 59  1  0  0  0
 31 60  1  0  0  0
 32 33  2  0  0  0
 32 61  1  0  0  0
 33 34  1  0  0  0
 34 35  2  0  0  0
 34 40  1  0  0  0
 36 37  2  0  0  0
 36 38  1  0  0  0
 40 62  1  0  0  0
 40 63  1  0  0  0
 40 64  1  0  0  0
M  CHG  1  38  -1
M  END
> <chembl_id>
CHEMBL3629114

> <chembl_pref_name>
None

> <i_m_ct_stereo_status>
1

> <s_m_source_file>
sdf/actives_sanitized.sdf

> <i_m_source_file_index>
99

> <i_lp_mmshare_version>
49012

> <i_f3d_flags>
0

> <s_epik_input>
W2NIXTFbY0hdYyhbQ0gzXSlbY0hdYyhjMTIpYyhDKD1PKVtPSF0pYzNuMltDSDJdW0NAXShbQ0gyXVtDSDJdMykoYzRbY0hdW2NIXVtjSF1bY0hdW2NIXTQpW05IXUMoPU8pYzVjKENsKVtjSF1jKFtjSF1jNUNsKS1uNltjSF1uYyhuNilbQ0gzXQ==

> <s_epik_cmdline>
J2VwaWtfcHl0aG9uJywgJy1waHQnLCAnMC41JywgJy1waCcsICc3LjUnLCAnLW50JywgJy1tYScsICcyMDAnLCAnLWltYWUnLCAnPGluZmlsZS5tYWU+JywgJy1vbWFlJywgJzxvdXRmaWxlLm1hZT4n

> <r_lp_tautomer_probability>
1

> <r_epik_Ionization_Penalty>
  0.0021

> <r_epik_Ionization_Penalty_Charging>
  0.0018

> <r_epik_Ionization_Penalty_Neutral>
  0.0002

> <r_epik_State_Penalty>
 -0.0000

> <r_epik_Charging_Adjusted_Penalty>
0.00183271537175675

> <i_epik_Tot_Q>
-1

> <i_epik_Tot_abs_Q>
1

> <s_lp_Force_Field>
OPLS3e

> <r_lp_Energy>
41.052573

> <b_lp_Chiralities_Consistent>
1

> <s_lp_Variant>
sdf/actives_sanitized.sdf:99-1

$$$$
sdf/actives_sanitized.sdf:100
                    3D
 Schrodinger Suite 2020-1.
 70 74  0  0  1  0            999 V2000
   -3.2258    1.4727    0.1861 C   0  0  0  0  0  0
   -2.0829    0.6647   -0.0594 O   0  0  0  0  0  0
   -0.8397    1.1443    0.1464 C   0  0  0  0  0  0
   -0.5924    2.2835    0.5479 O   0  0  0  0  0  0
    0.0727    0.1427   -0.1716 N   0  0  0  0  0  0
    1.4766    0.1562   -0.1093 C   0  0  0  0  0  0
    2.2436    1.2388    0.3445 C   0  0  0  0  0  0
    3.6338    1.1494    0.3751 C   0  0  0  0  0  0
    4.2945   -0.0123   -0.0385 C   0  0  0  0  0  0
    3.5223   -1.0931   -0.5178 C   0  0  0  0  0  0
    4.0796   -2.3088   -0.9463 N   0  0  0  0  0  0
    4.7684   -2.5535   -2.0846 C   0  0  0  0  0  0
    5.1249   -3.7046   -2.3336 O   0  0  0  0  0  0
    5.1297   -1.4310   -3.0939 C   0  0  2  0  0  0
    4.3558   -1.6062   -4.4164 C   0  0  0  0  0  0
    6.6686   -1.3734   -3.3250 C   0  0  0  0  0  0
    7.1889   -0.0560   -3.9589 C   0  0  0  0  0  0
    8.5938    0.3899   -3.4691 C   0  0  0  0  0  0
    8.6198    1.2556   -2.1676 C   0  0  2  0  0  0
    9.9769    1.7338   -1.8009 N   0  0  0  0  0  0
   11.1458    0.8150   -1.9511 C   0  0  0  0  0  0
   12.3241    1.1500   -0.9968 C   0  0  0  0  0  0
   12.5485    2.6475   -0.9936 C   0  0  0  0  0  0
   11.4772    3.4561   -1.0913 C   0  0  0  0  0  0
   10.1183    3.0047   -1.2981 C   0  0  0  0  0  0
    9.1743    3.7462   -1.0187 O   0  0  0  0  0  0
   13.8478    3.1925   -0.5736 C   0  0  0  0  0  0
   14.7506    3.3277   -1.5811 N   0  0  0  0  0  0
   15.9800    3.8135   -1.2723 C   0  0  0  0  0  0
   16.3508    4.1716    0.0248 C   0  0  0  0  0  0
   15.4154    4.0233    1.0519 C   0  0  0  0  0  0
   15.8407    4.4539    2.6699 Cl  0  0  0  0  0  0
   14.1421    3.5243    0.7557 C   0  0  0  0  0  0
   13.2174    3.3641    1.7325 F   0  0  0  0  0  0
    7.8768    0.5828   -1.0097 C   0  0  0  0  0  0
    6.4995    0.7725   -0.8801 C   0  0  0  0  0  0
    5.7777   -0.0450   -0.0068 C   0  0  0  0  0  0
    6.4822   -0.9367    0.8110 C   0  0  0  0  0  0
    7.8726   -1.0014    0.6960 C   0  0  0  0  0  0
    8.5723   -0.2730   -0.2110 N   0  0  0  0  0  0
    2.1271   -1.0048   -0.5323 C   0  0  0  0  0  0
   -4.1319    0.9039   -0.0224 H   0  0  0  0  0  0
   -3.2251    2.3569   -0.4532 H   0  0  0  0  0  0
   -3.2607    1.7974    1.2272 H   0  0  0  0  0  0
   -0.3287   -0.7260   -0.4933 H   0  0  0  0  0  0
    1.7944    2.1583    0.6825 H   0  0  0  0  0  0
    4.2037    1.9961    0.7305 H   0  0  0  0  0  0
    3.8327   -3.1135   -0.3887 H   0  0  0  0  0  0
    4.8159   -0.4743   -2.6824 H   0  0  0  0  0  0
    3.2776   -1.6121   -4.2493 H   0  0  0  0  0  0
    4.6150   -2.5396   -4.9184 H   0  0  0  0  0  0
    4.5690   -0.7901   -5.1076 H   0  0  0  0  0  0
    7.1788   -1.5392   -2.3769 H   0  0  0  0  0  0
    6.9859   -2.2173   -3.9403 H   0  0  0  0  0  0
    7.2163   -0.1923   -5.0409 H   0  0  0  0  0  0
    6.4828    0.7596   -3.7997 H   0  0  0  0  0  0
    9.2286   -0.4911   -3.3715 H   0  0  0  0  0  0
    9.0451    0.9841   -4.2650 H   0  0  0  0  0  0
    8.0295    2.1389   -2.4211 H   0  0  0  0  0  0
   10.8524   -0.2344   -1.9298 H   0  0  0  0  0  0
   11.5131    0.9835   -2.9644 H   0  0  0  0  0  0
   12.0502    0.8319    0.0103 H   0  0  0  0  0  0
   13.2261    0.6053   -1.2777 H   0  0  0  0  0  0
   11.6185    4.5217   -0.9741 H   0  0  0  0  0  0
   16.6773    3.9131   -2.0913 H   0  0  0  0  0  0
   17.3410    4.5531    0.2275 H   0  0  0  0  0  0
    5.9794    1.4498   -1.5422 H   0  0  0  0  0  0
    5.9616   -1.5804    1.5052 H   0  0  0  0  0  0
    8.4443   -1.6802    1.3113 H   0  0  0  0  0  0
    1.5447   -1.8458   -0.8846 H   0  0  0  0  0  0
  1  2  1  0  0  0
  1 42  1  0  0  0
  1 43  1  0  0  0
  1 44  1  0  0  0
  2  3  1  0  0  0
  3  4  2  0  0  0
  3  5  1  0  0  0
  5  6  1  0  0  0
  5 45  1  0  0  0
  6  7  2  0  0  0
  6 41  1  0  0  0
  7  8  1  0  0  0
  7 46  1  0  0  0
  8  9  2  0  0  0
  8 47  1  0  0  0
  9 10  1  0  0  0
  9 37  1  0  0  0
 10 11  1  0  0  0
 10 41  2  0  0  0
 11 12  1  0  0  0
 11 48  1  0  0  0
 12 13  2  0  0  0
 12 14  1  0  0  0
 14 15  1  0  0  0
 14 16  1  0  0  0
 14 49  1  0  0  0
 15 50  1  0  0  0
 15 51  1  0  0  0
 15 52  1  0  0  0
 16 17  1  0  0  0
 16 53  1  0  0  0
 16 54  1  0  0  0
 17 18  1  0  0  0
 17 55  1  0  0  0
 17 56  1  0  0  0
 18 19  1  0  0  0
 18 57  1  0  0  0
 18 58  1  0  0  0
 19 20  1  0  0  0
 19 35  1  0  0  0
 19 59  1  0  0  0
 20 21  1  0  0  0
 20 25  1  0  0  0
 21 22  1  0  0  0
 21 60  1  0  0  0
 21 61  1  0  0  0
 22 23  1  0  0  0
 22 62  1  0  0  0
 22 63  1  0  0  0
 23 24  2  0  0  0
 23 27  1  0  0  0
 24 25  1  0  0  0
 24 64  1  0  0  0
 25 26  2  0  0  0
 27 28  2  0  0  0
 27 33  1  0  0  0
 28 29  1  0  0  0
 29 30  2  0  0  0
 29 65  1  0  0  0
 30 31  1  0  0  0
 30 66  1  0  0  0
 31 32  1  0  0  0
 31 33  2  0  0  0
 33 34  1  0  0  0
 35 36  1  0  0  0
 35 40  2  0  0  0
 36 37  2  0  0  0
 36 67  1  0  0  0
 37 38  1  0  0  0
 38 39  2  0  0  0
 38 68  1  0  0  0
 39 40  1  0  0  0
 39 69  1  0  0  0
 41 70  1  0  0  0
M  END
> <chembl_id>
CHEMBL4110103

> <chembl_pref_name>
None

> <i_m_ct_stereo_status>
1

> <s_m_source_file>
sdf/actives_sanitized.sdf

> <i_m_source_file_index>
100

> <i_lp_mmshare_version>
49012

> <i_f3d_flags>
0

> <s_epik_input>
W0NIM11PQyg9TylbTkhdYyhbY0hdW2NIXTEpW2NIXWMoYzEyKVtOSF1DKD1PKVtDQEhdKFtDSDNdKVtDSDJdW0NIMl1bQ0gyXVtDQEBIXShjM1tjSF1jMltjSF1bY0hdbjMpTjRbQ0gyXVtDSDJdQyg9W0NIXUM0PU8pYzVuW2NIXVtjSF1jKENsKWM1Rg==

> <s_epik_cmdline>
J2VwaWtfcHl0aG9uJywgJy1waHQnLCAnMC41JywgJy1waCcsICc3LjUnLCAnLW50JywgJy1tYScsICcyMDAnLCAnLWltYWUnLCAnPGluZmlsZS5tYWU+JywgJy1vbWFlJywgJzxvdXRmaWxlLm1hZT4n

> <r_lp_tautomer_probability>
1

> <r_epik_Ionization_Penalty>
  0.0002

> <r_epik_Ionization_Penalty_Charging>
  0.0000

> <r_epik_Ionization_Penalty_Neutral>
  0.0002

> <r_epik_State_Penalty>
 -0.0000

> <r_epik_Charging_Adjusted_Penalty>
0

> <i_epik_Tot_Q>
0

> <i_epik_Tot_abs_Q>
0

> <s_epik_Chemistry_Notes>
This compound has an ester and may undergo hydrolysis at high or low pH.

> <s_lp_Force_Field>
OPLS3e

> <r_lp_Energy>
93.384842

> <b_lp_Chiralities_Consistent>
1

> <s_lp_Variant>
sdf/actives_sanitized.sdf:100-1

$$$$
sdf/actives_sanitized.sdf:101
                    3D
 Schrodinger Suite 2020-1.
 53 56  0  0  1  0            999 V2000
    0.1712    2.5241   -0.2988 C   0  0  0  0  0  0
   -0.4989    3.7166   -0.5477 C   0  0  0  0  0  0
   -1.8873    3.7602   -0.6201 C   0  0  0  0  0  0
   -0.5294    1.3235   -0.1100 C   0  0  0  0  0  0
   -1.9381    1.3320   -0.1758 C   0  0  0  0  0  0
   -2.6002    2.5680   -0.4331 C   0  0  0  0  0  0
   -4.3439    2.3700   -0.4769 S   0  0  0  0  0  0
   -4.1952    0.6496   -0.1421 C   0  0  0  0  0  0
   -2.8684    0.2638   -0.0208 C   0  0  0  0  0  0
   -5.3120   -0.1592   -0.0471 C   0  0  0  0  0  0
   -6.4224    0.3295    0.4903 N   0  0  0  0  0  0
   -5.2325   -1.4075   -0.4903 N   0  3  0  0  0  0
    0.0368    0.0847    0.1375 O   0  0  0  0  0  0
    1.4569   -0.0512    0.2729 C   0  0  2  0  0  0
    1.7960   -1.5488    0.1919 C   0  0  0  0  0  0
    1.9546    0.5563    1.5866 C   0  0  0  0  0  0
    1.1751    0.4849    2.7470 C   0  0  0  0  0  0
    1.6387    1.0456    3.9341 C   0  0  0  0  0  0
    2.8805    1.6763    3.9605 C   0  0  0  0  0  0
    3.6635    1.7508    2.8108 C   0  0  0  0  0  0
    3.2004    1.1900    1.6235 C   0  0  0  0  0  0
    1.4882   -2.0451   -1.1064 O   0  0  0  0  0  0
    1.7577   -3.3216   -1.4435 C   0  0  0  0  0  0
    1.3441   -3.5221   -2.7565 N   0  0  0  0  0  0
    2.2764   -4.1456   -0.6875 O   0  0  0  0  0  0
    1.4596   -4.6674   -3.5617 C   0  0  0  0  0  0
    0.7757   -4.6431   -4.7817 C   0  0  0  0  0  0
    0.8380   -5.7328   -5.6504 C   0  0  0  0  0  0
    1.5896   -6.8559   -5.3084 C   0  0  0  0  0  0
    2.2815   -6.8886   -4.0983 C   0  0  0  0  0  0
    2.2202   -5.8007   -3.2263 C   0  0  0  0  0  0
    3.0161   -7.9757   -3.7711 F   0  0  0  0  0  0
    1.2491    2.5516   -0.2539 H   0  0  0  0  0  0
    0.0696    4.6245   -0.6878 H   0  0  0  0  0  0
   -2.3977    4.6925   -0.8148 H   0  0  0  0  0  0
   -2.5636   -0.7525    0.1812 H   0  0  0  0  0  0
   -7.2435   -0.2521    0.5688 H   0  0  0  0  0  0
   -6.4390    1.2837    0.8203 H   0  0  0  0  0  0
   -6.0349   -2.0165   -0.4266 H   0  0  0  0  0  0
    1.9451    0.4457   -0.5685 H   0  0  0  0  0  0
    1.2418   -2.1057    0.9494 H   0  0  0  0  0  0
    2.8591   -1.6965    0.3916 H   0  0  0  0  0  0
    0.2122   -0.0050    2.7319 H   0  0  0  0  0  0
    1.0386    0.9911    4.8304 H   0  0  0  0  0  0
    3.2403    2.1109    4.8816 H   0  0  0  0  0  0
    4.6256    2.2406    2.8402 H   0  0  0  0  0  0
    3.8109    1.2498    0.7341 H   0  0  0  0  0  0
    0.8970   -2.7329   -3.1997 H   0  0  0  0  0  0
    0.1891   -3.7804   -5.0645 H   0  0  0  0  0  0
    0.3049   -5.7064   -6.5892 H   0  0  0  0  0  0
    1.6384   -7.6985   -5.9822 H   0  0  0  0  0  0
    2.7794   -5.8610   -2.3065 H   0  0  0  0  0  0
   -4.3701   -1.7405   -0.8961 H   0  0  0  0  0  0
  1  4  2  0  0  0
  1  2  1  0  0  0
  1 33  1  0  0  0
  2  3  2  0  0  0
  2 34  1  0  0  0
  3  6  1  0  0  0
  3 35  1  0  0  0
  4  5  1  0  0  0
  4 13  1  0  0  0
  5  9  1  0  0  0
  5  6  2  0  0  0
  6  7  1  0  0  0
  7  8  1  0  0  0
  8  9  2  0  0  0
  8 10  1  0  0  0
  9 36  1  0  0  0
 10 11  1  0  0  0
 10 12  2  0  0  0
 11 37  1  0  0  0
 11 38  1  0  0  0
 12 39  1  0  0  0
 12 53  1  0  0  0
 13 14  1  0  0  0
 14 16  1  0  0  0
 14 15  1  0  0  0
 14 40  1  0  0  0
 15 22  1  0  0  0
 15 41  1  0  0  0
 15 42  1  0  0  0
 16 17  2  0  0  0
 16 21  1  0  0  0
 17 18  1  0  0  0
 17 43  1  0  0  0
 18 19  2  0  0  0
 18 44  1  0  0  0
 19 20  1  0  0  0
 19 45  1  0  0  0
 20 21  2  0  0  0
 20 46  1  0  0  0
 21 47  1  0  0  0
 22 23  1  0  0  0
 23 24  1  0  0  0
 23 25  2  0  0  0
 24 26  1  0  0  0
 24 48  1  0  0  0
 26 27  2  0  0  0
 26 31  1  0  0  0
 27 28  1  0  0  0
 27 49  1  0  0  0
 28 29  2  0  0  0
 28 50  1  0  0  0
 29 30  1  0  0  0
 29 51  1  0  0  0
 30 31  2  0  0  0
 30 32  1  0  0  0
 31 52  1  0  0  0
M  CHG  1  12   1
M  END
> <chembl_id>
CHEMBL597376

> <chembl_pref_name>
None

> <s_m_source_file>
sdf/actives_sanitized.sdf

> <i_m_source_file_index>
101

> <i_lp_mmshare_version>
49012

> <i_m_ct_stereo_status>
1

> <i_f3d_flags>
0

> <s_epik_input>
W0hdXE49QyhbTkgyXSlcYyhbY0hdMSlzYyhjMTIpW2NIXVtjSF1bY0hdYzJPW0NAQEhdKGMzW2NIXVtjSF1bY0hdW2NIXVtjSF0zKVtDSDJdT0MoPU8pW05IXWM0W2NIXVtjSF1bY0hdYyhGKVtjSF00

> <s_epik_cmdline>
J2VwaWtfcHl0aG9uJywgJy1waHQnLCAnMC41JywgJy1waCcsICc3LjUnLCAnLW50JywgJy1tYScsICcyMDAnLCAnLWltYWUnLCAnPGluZmlsZS5tYWU+JywgJy1vbWFlJywgJzxvdXRmaWxlLm1hZT4n

> <r_lp_tautomer_probability>
1

> <r_epik_Ionization_Penalty>
  0.0095

> <r_epik_Ionization_Penalty_Charging>
  0.0095

> <r_epik_Ionization_Penalty_Neutral>
  0.0000

> <r_epik_State_Penalty>
 -0.0000

> <r_epik_Charging_Adjusted_Penalty>
0.00945881282357717

> <i_epik_Tot_Q>
1

> <i_epik_Tot_abs_Q>
1

> <s_epik_Chemistry_Notes>
This compound has an ester and may undergo hydrolysis at high or low pH. This compound has an imine and may undergo hydrolysis.

> <s_lp_Force_Field>
OPLS3e

> <r_lp_Energy>
36.39688

> <b_lp_Chiralities_Consistent>
1

> <s_lp_Variant>
sdf/actives_sanitized.sdf:101-1

$$$$
sdf/actives_sanitized.sdf:102
                    3D
 Schrodinger Suite 2020-1.
 53 56  0  0  1  0            999 V2000
    0.1827    2.5387   -0.2836 C   0  0  0  0  0  0
   -0.4804    3.7406   -0.5047 C   0  0  0  0  0  0
   -1.8689    3.7952   -0.5682 C   0  0  0  0  0  0
   -0.5254    1.3394   -0.1147 C   0  0  0  0  0  0
   -1.9343    1.3586   -0.1732 C   0  0  0  0  0  0
   -2.5890    2.6042   -0.4018 C   0  0  0  0  0  0
   -4.3338    2.4191   -0.4409 S   0  0  0  0  0  0
   -4.1959    0.6911   -0.1415 C   0  0  0  0  0  0
   -2.8713    0.2936   -0.0346 C   0  0  0  0  0  0
   -5.3187   -0.1105   -0.0568 C   0  0  0  0  0  0
   -6.4237    0.3786    0.4913 N   0  0  0  0  0  0
   -5.2509   -1.3520   -0.5206 N   0  3  0  0  0  0
    0.0336    0.0923    0.1057 O   0  0  0  0  0  0
    1.4516   -0.0534    0.2513 C   0  0  2  0  0  0
    1.7789   -1.5530    0.1572 C   0  0  0  0  0  0
    1.9409    0.5348    1.5772 C   0  0  0  0  0  0
    1.1558    0.4406    2.7322 C   0  0  0  0  0  0
    1.6097    0.9854    3.9304 C   0  0  0  0  0  0
    2.8483    1.6213    3.9738 C   0  0  0  0  0  0
    3.6372    1.7177    2.8296 C   0  0  0  0  0  0
    3.1833    1.1742    1.6309 C   0  0  0  0  0  0
    1.5025   -2.0300   -1.1556 O   0  0  0  0  0  0
    1.7348   -3.3152   -1.4881 C   0  0  0  0  0  0
    1.3826   -3.4962   -2.8216 N   0  0  0  0  0  0
    2.1763   -4.1678   -0.7140 O   0  0  0  0  0  0
    1.4830   -4.6640   -3.5937 C   0  0  0  0  0  0
    0.6251   -4.7697   -4.6913 C   0  0  0  0  0  0
    0.6795   -5.8920   -5.5139 C   0  0  0  0  0  0
    1.5975   -6.9042   -5.2435 C   0  0  0  0  0  0
    2.4648   -6.8021   -4.1582 C   0  0  0  0  0  0
    2.4134   -5.6817   -3.3329 C   0  0  0  0  0  0
    1.6505   -7.9928   -6.0440 F   0  0  0  0  0  0
    1.2611    2.5572   -0.2447 H   0  0  0  0  0  0
    0.0937    4.6475   -0.6301 H   0  0  0  0  0  0
   -2.3739    4.7346   -0.7417 H   0  0  0  0  0  0
   -2.5722   -0.7286    0.1457 H   0  0  0  0  0  0
   -7.2519   -0.1948    0.5558 H   0  0  0  0  0  0
   -6.4308    1.3270    0.8377 H   0  0  0  0  0  0
   -6.0587   -1.9549   -0.4650 H   0  0  0  0  0  0
    1.9504    0.4503   -0.5799 H   0  0  0  0  0  0
    1.1995   -2.1133    0.8932 H   0  0  0  0  0  0
    2.8347   -1.7148    0.3819 H   0  0  0  0  0  0
    0.1957   -0.0538    2.7041 H   0  0  0  0  0  0
    1.0042    0.9147    4.8221 H   0  0  0  0  0  0
    3.2004    2.0427    4.9039 H   0  0  0  0  0  0
    4.5969    2.2114    2.8721 H   0  0  0  0  0  0
    3.7979    1.2517    0.7456 H   0  0  0  0  0  0
    0.9489   -2.7068   -3.2775 H   0  0  0  0  0  0
   -0.0887   -3.9882   -4.9102 H   0  0  0  0  0  0
    0.0130   -5.9764   -6.3596 H   0  0  0  0  0  0
    3.1794   -7.5872   -3.9597 H   0  0  0  0  0  0
    3.1085   -5.6160   -2.5098 H   0  0  0  0  0  0
   -4.3932   -1.6855   -0.9356 H   0  0  0  0  0  0
  1  4  2  0  0  0
  1  2  1  0  0  0
  1 33  1  0  0  0
  2  3  2  0  0  0
  2 34  1  0  0  0
  3  6  1  0  0  0
  3 35  1  0  0  0
  4  5  1  0  0  0
  4 13  1  0  0  0
  5  9  1  0  0  0
  5  6  2  0  0  0
  6  7  1  0  0  0
  7  8  1  0  0  0
  8  9  2  0  0  0
  8 10  1  0  0  0
  9 36  1  0  0  0
 10 11  1  0  0  0
 10 12  2  0  0  0
 11 37  1  0  0  0
 11 38  1  0  0  0
 12 39  1  0  0  0
 12 53  1  0  0  0
 13 14  1  0  0  0
 14 16  1  0  0  0
 14 15  1  0  0  0
 14 40  1  0  0  0
 15 22  1  0  0  0
 15 41  1  0  0  0
 15 42  1  0  0  0
 16 17  2  0  0  0
 16 21  1  0  0  0
 17 18  1  0  0  0
 17 43  1  0  0  0
 18 19  2  0  0  0
 18 44  1  0  0  0
 19 20  1  0  0  0
 19 45  1  0  0  0
 20 21  2  0  0  0
 20 46  1  0  0  0
 21 47  1  0  0  0
 22 23  1  0  0  0
 23 24  1  0  0  0
 23 25  2  0  0  0
 24 26  1  0  0  0
 24 48  1  0  0  0
 26 27  2  0  0  0
 26 31  1  0  0  0
 27 28  1  0  0  0
 27 49  1  0  0  0
 28 29  2  0  0  0
 28 50  1  0  0  0
 29 30  1  0  0  0
 29 32  1  0  0  0
 30 31  2  0  0  0
 30 51  1  0  0  0
 31 52  1  0  0  0
M  CHG  1  12   1
M  END
> <chembl_id>
CHEMBL597579

> <chembl_pref_name>
None

> <s_m_source_file>
sdf/actives_sanitized.sdf

> <i_m_source_file_index>
102

> <i_lp_mmshare_version>
49012

> <i_m_ct_stereo_status>
1

> <i_f3d_flags>
0

> <s_epik_input>
W0hdXE49QyhbTkgyXSlcYyhbY0hdMSlzYyhjMTIpW2NIXVtjSF1bY0hdYzJPW0NAQEhdKGMzW2NIXVtjSF1bY0hdW2NIXVtjSF0zKVtDSDJdT0MoPU8pW05IXWM0W2NIXVtjSF1jKEYpW2NIXVtjSF00

> <s_epik_cmdline>
J2VwaWtfcHl0aG9uJywgJy1waHQnLCAnMC41JywgJy1waCcsICc3LjUnLCAnLW50JywgJy1tYScsICcyMDAnLCAnLWltYWUnLCAnPGluZmlsZS5tYWU+JywgJy1vbWFlJywgJzxvdXRmaWxlLm1hZT4n

> <r_lp_tautomer_probability>
1

> <r_epik_Ionization_Penalty>
  0.0095

> <r_epik_Ionization_Penalty_Charging>
  0.0095

> <r_epik_Ionization_Penalty_Neutral>
  0.0000

> <r_epik_State_Penalty>
 -0.0000

> <r_epik_Charging_Adjusted_Penalty>
0.00945881282357717

> <i_epik_Tot_Q>
1

> <i_epik_Tot_abs_Q>
1

> <s_epik_Chemistry_Notes>
This compound has an ester and may undergo hydrolysis at high or low pH. This compound has an imine and may undergo hydrolysis.

> <s_lp_Force_Field>
OPLS3e

> <r_lp_Energy>
36.334788

> <b_lp_Chiralities_Consistent>
1

> <s_lp_Variant>
sdf/actives_sanitized.sdf:102-1

$$$$
sdf/actives_sanitized.sdf:103
                    3D
 Schrodinger Suite 2020-1.
 66 71  0  0  1  0            999 V2000
   -0.0561   -0.1350    0.0640 C   0  0  0  0  0  0
   -0.9232   -1.2236    0.0117 C   0  0  0  0  0  0
   -2.1865   -0.6931    0.0782 N   0  0  0  0  0  0
   -2.1272    0.6379    0.1696 N   0  0  0  0  0  0
   -0.7855    0.9716    0.1528 N   0  0  0  0  0  0
    6.6523    2.1915   -3.5802 C   0  0  0  0  0  0
    6.6894    1.0488   -2.7824 C   0  0  0  0  0  0
    4.2781    2.4562   -3.1049 C   0  0  0  0  0  0
    5.4494    2.8844   -3.7364 C   0  0  0  0  0  0
    4.3115    1.3046   -2.2962 C   0  0  0  0  0  0
    5.5386    0.6331   -2.1658 N   0  0  0  0  0  0
    5.4424   -0.4578   -1.3750 N   0  0  0  0  0  0
    3.4097    0.5486   -1.5074 C   0  0  0  0  0  0
    4.1848   -0.4998   -0.9871 C   0  0  0  0  0  0
    3.6253   -1.5742   -0.0664 C   0  0  0  0  0  0
    2.0783   -1.5254   -0.1180 C   0  0  0  0  0  0
    1.4824   -0.0838    0.0266 C   0  0  1  0  0  0
    1.9165    0.7154   -1.2448 C   0  0  0  0  0  0
    1.9636    0.6095    1.2397 N   0  0  0  0  0  0
    1.8115    0.2305    2.5236 C   0  0  0  0  0  0
    2.3175    1.2306    3.5258 C   0  0  0  0  0  0
    1.2955   -0.8245    2.8920 O   0  0  0  0  0  0
    1.4535    2.2142    4.0448 C   0  0  0  0  0  0
    1.9270    3.1428    4.9724 C   0  0  0  0  0  0
    3.2587    3.1161    5.4009 C   0  0  0  0  0  0
    4.1158    2.1364    4.8838 C   0  0  0  0  0  0
    3.6579    1.2000    3.9564 C   0  0  0  0  0  0
    4.7945    0.0282    3.3706 Cl  0  0  0  0  0  0
    3.7237    4.0692    6.3421 N   0  0  0  0  0  0
    3.0142    4.8622    7.2098 C   0  0  0  0  0  0
    3.8167    5.6168    7.9143 N   0  0  0  0  0  0
    5.0082    5.2574    7.4629 C   0  0  0  0  0  0
    5.0265    4.3395    6.5185 N   0  0  0  0  0  0
    6.2796    5.8895    7.9848 C   0  0  0  0  0  0
    7.9145    2.6673   -4.2750 C   0  0  0  0  0  0
   -0.2108    2.3303    3.5666 Cl  0  0  0  0  0  0
   -3.4787   -1.3824    0.0697 C   0  0  0  0  0  0
   -3.6246   -2.2371    1.3427 C   0  0  0  0  0  0
   -3.6284   -2.2094   -1.2218 C   0  0  0  0  0  0
   -0.7616   -2.2888   -0.0615 H   0  0  0  0  0  0
    7.5823    0.4619   -2.6185 H   0  0  0  0  0  0
    3.3586    3.0070   -3.2370 H   0  0  0  0  0  0
    5.4158    3.7698   -4.3552 H   0  0  0  0  0  0
    3.9747   -2.5667   -0.3525 H   0  0  0  0  0  0
    3.9617   -1.4040    0.9559 H   0  0  0  0  0  0
    1.7566   -1.9549   -1.0692 H   0  0  0  0  0  0
    1.6807   -2.1918    0.6484 H   0  0  0  0  0  0
    1.6664    1.7717   -1.1312 H   0  0  0  0  0  0
    1.3637    0.3727   -2.1211 H   0  0  0  0  0  0
    2.3326    1.5351    1.0784 H   0  0  0  0  0  0
    1.2448    3.8915    5.3477 H   0  0  0  0  0  0
    5.1484    2.0917    5.2006 H   0  0  0  0  0  0
    1.9365    4.8219    7.2650 H   0  0  0  0  0  0
    7.1553    5.6929    7.3647 H   0  0  0  0  0  0
    6.4783    5.6207    9.0226 H   0  0  0  0  0  0
    6.1736    6.9748    8.0062 H   0  0  0  0  0  0
    7.7290    3.5200   -4.9296 H   0  0  0  0  0  0
    8.3352    1.8633   -4.8798 H   0  0  0  0  0  0
    8.6669    2.9497   -3.5379 H   0  0  0  0  0  0
   -4.2685   -0.6275    0.0777 H   0  0  0  0  0  0
   -4.6024   -2.7184    1.3802 H   0  0  0  0  0  0
   -3.5268   -1.6280    2.2424 H   0  0  0  0  0  0
   -2.8697   -3.0232    1.3906 H   0  0  0  0  0  0
   -4.6101   -2.6816   -1.2717 H   0  0  0  0  0  0
   -2.8812   -3.0017   -1.2850 H   0  0  0  0  0  0
   -3.5235   -1.5826   -2.1084 H   0  0  0  0  0  0
  1  2  2  0  0  0
  1  5  1  0  0  0
  1 17  1  0  0  0
  2  3  1  0  0  0
  2 40  1  0  0  0
  3  4  1  0  0  0
  3 37  1  0  0  0
  4  5  2  0  0  0
  6  7  2  0  0  0
  6  9  1  0  0  0
  6 35  1  0  0  0
  7 11  1  0  0  0
  7 41  1  0  0  0
  8 10  1  0  0  0
  8  9  2  0  0  0
  8 42  1  0  0  0
  9 43  1  0  0  0
 10 11  1  0  0  0
 10 13  2  0  0  0
 11 12  1  0  0  0
 12 14  2  0  0  0
 13 14  1  0  0  0
 13 18  1  0  0  0
 14 15  1  0  0  0
 15 16  1  0  0  0
 15 44  1  0  0  0
 15 45  1  0  0  0
 16 17  1  0  0  0
 16 46  1  0  0  0
 16 47  1  0  0  0
 17 18  1  0  0  0
 17 19  1  0  0  0
 18 48  1  0  0  0
 18 49  1  0  0  0
 19 20  1  0  0  0
 19 50  1  0  0  0
 20 21  1  0  0  0
 20 22  2  0  0  0
 21 23  2  0  0  0
 21 27  1  0  0  0
 23 24  1  0  0  0
 23 36  1  0  0  0
 24 25  2  0  0  0
 24 51  1  0  0  0
 25 26  1  0  0  0
 25 29  1  0  0  0
 26 27  2  0  0  0
 26 52  1  0  0  0
 27 28  1  0  0  0
 29 30  1  0  0  0
 29 33  1  0  0  0
 30 31  2  0  0  0
 30 53  1  0  0  0
 31 32  1  0  0  0
 32 33  2  0  0  0
 32 34  1  0  0  0
 34 54  1  0  0  0
 34 55  1  0  0  0
 34 56  1  0  0  0
 35 57  1  0  0  0
 35 58  1  0  0  0
 35 59  1  0  0  0
 37 38  1  0  0  0
 37 39  1  0  0  0
 37 60  1  0  0  0
 38 61  1  0  0  0
 38 62  1  0  0  0
 38 63  1  0  0  0
 39 64  1  0  0  0
 39 65  1  0  0  0
 39 66  1  0  0  0
M  END
> <chembl_id>
CHEMBL3628953

> <chembl_pref_name>
None

> <i_m_ct_stereo_status>
1

> <s_m_source_file>
sdf/actives_sanitized.sdf

> <i_m_source_file_index>
103

> <i_lp_mmshare_version>
49012

> <i_f3d_flags>
0

> <s_epik_input>
W2NIXTFbY0hdYyhbQ0gzXSlbY0hdbihjMTIpbmMzYzJbQ0gyXVtDQF0oW0NIMl1bQ0gyXTMpKGM0W2NIXW4obm40KVtDSF0oW0NIM10pW0NIM10pW05IXUMoPU8pYzVjKENsKVtjSF1jKFtjSF1jNUNsKS1uNltjSF1uYyhuNilbQ0gzXQ==

> <s_epik_cmdline>
J2VwaWtfcHl0aG9uJywgJy1waHQnLCAnMC41JywgJy1waCcsICc3LjUnLCAnLW50JywgJy1tYScsICcyMDAnLCAnLWltYWUnLCAnPGluZmlsZS5tYWU+JywgJy1vbWFlJywgJzxvdXRmaWxlLm1hZT4n

> <r_lp_tautomer_probability>
1

> <r_epik_Ionization_Penalty>
  0.0002

> <r_epik_Ionization_Penalty_Charging>
  0.0000

> <r_epik_Ionization_Penalty_Neutral>
  0.0002

> <r_epik_State_Penalty>
 -0.0000

> <r_epik_Charging_Adjusted_Penalty>
0

> <i_epik_Tot_Q>
0

> <i_epik_Tot_abs_Q>
0

> <s_lp_Force_Field>
OPLS3e

> <r_lp_Energy>
27.404024

> <b_lp_Chiralities_Consistent>
1

> <s_lp_Variant>
sdf/actives_sanitized.sdf:103-1

$$$$
sdf/actives_sanitized.sdf:104
                    3D
 Schrodinger Suite 2020-1.
 61 66  0  0  1  0            999 V2000
   -0.5044    1.6395    0.0179 C   0  0  0  0  0  0
    0.0504    2.5306   -0.9182 C   0  0  0  0  0  0
   -0.3644    3.8597   -0.9871 C   0  0  0  0  0  0
   -1.3580    4.3230   -0.1289 C   0  0  0  0  0  0
   -1.9392    3.4540    0.7914 C   0  0  0  0  0  0
   -1.5220    2.1242    0.8596 C   0  0  0  0  0  0
   -0.4586   -5.4731   -3.5652 C   0  0  0  0  0  0
   -0.2786   -5.4342   -2.1833 C   0  0  0  0  0  0
   -0.6820   -3.0483   -3.6124 C   0  0  0  0  0  0
   -0.6592   -4.2826   -4.2678 C   0  0  0  0  0  0
   -0.4975   -3.0039   -2.2176 C   0  0  0  0  0  0
   -0.3017   -4.2219   -1.5456 N   0  0  0  0  0  0
   -0.1462   -4.0517   -0.2148 N   0  0  0  0  0  0
   -0.4460   -2.0242   -1.1952 C   0  0  0  0  0  0
   -0.2309   -2.7530   -0.0149 C   0  0  0  0  0  0
   -0.1014   -2.1067    1.3566 C   0  0  0  0  0  0
   -0.5904   -0.6388    1.2787 C   0  0  0  0  0  0
   -0.0331    0.1545    0.0462 C   0  0  1  0  0  0
   -0.6161   -0.5100   -1.2430 C   0  0  0  0  0  0
    1.4477    0.1216    0.0013 N   0  0  0  0  0  0
    2.3041    0.6490    0.9003 C   0  0  0  0  0  0
    3.7576    0.4076    0.5950 C   0  0  0  0  0  0
    1.9715    1.3067    1.8863 O   0  0  0  0  0  0
    4.4472   -0.6628    1.1961 C   0  0  0  0  0  0
    5.7942   -0.8796    0.9046 C   0  0  0  0  0  0
    6.4851   -0.0439    0.0172 C   0  0  0  0  0  0
    5.7985    1.0231   -0.5727 C   0  0  0  0  0  0
    4.4519    1.2551   -0.2905 C   0  0  0  0  0  0
    3.6945    2.6091   -1.0663 Cl  0  0  0  0  0  0
    7.8553   -0.2662   -0.2813 N   0  0  0  0  0  0
    8.7578    0.5417   -0.9297 C   0  0  0  0  0  0
    9.9301   -0.0325   -1.0050 N   0  0  0  0  0  0
    9.7183   -1.1835   -0.3871 C   0  0  0  0  0  0
    8.4994   -1.3920    0.0646 N   0  0  0  0  0  0
   10.8113   -2.2177   -0.2351 C   0  0  0  0  0  0
   -0.4306   -6.8046   -4.2925 C   0  0  0  0  0  0
    3.6859   -1.7475    2.3145 Cl  0  0  0  0  0  0
   -2.9118    3.8996    1.6184 F   0  0  0  0  0  0
    0.8141    2.1919   -1.6026 H   0  0  0  0  0  0
    0.0826    4.5281   -1.7080 H   0  0  0  0  0  0
   -1.6808    5.3525   -0.1809 H   0  0  0  0  0  0
   -2.0046    1.4889    1.5852 H   0  0  0  0  0  0
   -0.1202   -6.3135   -1.5750 H   0  0  0  0  0  0
   -0.8381   -2.1395   -4.1743 H   0  0  0  0  0  0
   -0.7996   -4.3078   -5.3391 H   0  0  0  0  0  0
   -0.6751   -2.6489    2.1092 H   0  0  0  0  0  0
    0.9384   -2.1271    1.6790 H   0  0  0  0  0  0
   -1.6804   -0.6681    1.2272 H   0  0  0  0  0  0
   -0.3535   -0.1276    2.2130 H   0  0  0  0  0  0
   -0.1319   -0.1051   -2.1334 H   0  0  0  0  0  0
   -1.6777   -0.2792   -1.3498 H   0  0  0  0  0  0
    1.8303   -0.6026   -0.5888 H   0  0  0  0  0  0
    6.2990   -1.7072    1.3823 H   0  0  0  0  0  0
    6.2991    1.6860   -1.2626 H   0  0  0  0  0  0
    8.4851    1.5164   -1.3056 H   0  0  0  0  0  0
   10.4422   -3.2084    0.0339 H   0  0  0  0  0  0
   11.5903   -1.8973    0.4570 H   0  0  0  0  0  0
   11.3307   -2.3522   -1.1846 H   0  0  0  0  0  0
   -0.5289   -6.6865   -5.3724 H   0  0  0  0  0  0
   -1.2382   -7.4456   -3.9375 H   0  0  0  0  0  0
    0.5086   -7.3212   -4.0917 H   0  0  0  0  0  0
  1  2  2  0  0  0
  1  6  1  0  0  0
  1 18  1  0  0  0
  2  3  1  0  0  0
  2 39  1  0  0  0
  3  4  2  0  0  0
  3 40  1  0  0  0
  4  5  1  0  0  0
  4 41  1  0  0  0
  5  6  2  0  0  0
  5 38  1  0  0  0
  6 42  1  0  0  0
  7  8  2  0  0  0
  7 10  1  0  0  0
  7 36  1  0  0  0
  8 12  1  0  0  0
  8 43  1  0  0  0
  9 11  1  0  0  0
  9 10  2  0  0  0
  9 44  1  0  0  0
 10 45  1  0  0  0
 11 12  1  0  0  0
 11 14  2  0  0  0
 12 13  1  0  0  0
 13 15  2  0  0  0
 14 15  1  0  0  0
 14 19  1  0  0  0
 15 16  1  0  0  0
 16 17  1  0  0  0
 16 46  1  0  0  0
 16 47  1  0  0  0
 17 18  1  0  0  0
 17 48  1  0  0  0
 17 49  1  0  0  0
 18 19  1  0  0  0
 18 20  1  0  0  0
 19 50  1  0  0  0
 19 51  1  0  0  0
 20 21  1  0  0  0
 20 52  1  0  0  0
 21 22  1  0  0  0
 21 23  2  0  0  0
 22 24  2  0  0  0
 22 28  1  0  0  0
 24 25  1  0  0  0
 24 37  1  0  0  0
 25 26  2  0  0  0
 25 53  1  0  0  0
 26 27  1  0  0  0
 26 30  1  0  0  0
 27 28  2  0  0  0
 27 54  1  0  0  0
 28 29  1  0  0  0
 30 31  1  0  0  0
 30 34  1  0  0  0
 31 32  2  0  0  0
 31 55  1  0  0  0
 32 33  1  0  0  0
 33 34  2  0  0  0
 33 35  1  0  0  0
 35 56  1  0  0  0
 35 57  1  0  0  0
 35 58  1  0  0  0
 36 59  1  0  0  0
 36 60  1  0  0  0
 36 61  1  0  0  0
M  END
> <chembl_id>
CHEMBL3628948

> <chembl_pref_name>
None

> <i_m_ct_stereo_status>
1

> <s_m_source_file>
sdf/actives_sanitized.sdf

> <i_m_source_file_index>
104

> <i_lp_mmshare_version>
49012

> <i_f3d_flags>
0

> <s_epik_input>
W2NIXTFbY0hdYyhbQ0gzXSlbY0hdbihjMTIpbmMzYzJbQ0gyXVtDQF0oW0NIMl1bQ0gyXTMpKGM0W2NIXVtjSF1bY0hdYyhGKVtjSF00KVtOSF1DKD1PKWM1YyhDbClbY0hdYyhbY0hdYzVDbCktbjZbY0hdbmMobjYpW0NIM10=

> <s_epik_cmdline>
J2VwaWtfcHl0aG9uJywgJy1waHQnLCAnMC41JywgJy1waCcsICc3LjUnLCAnLW50JywgJy1tYScsICcyMDAnLCAnLWltYWUnLCAnPGluZmlsZS5tYWU+JywgJy1vbWFlJywgJzxvdXRmaWxlLm1hZT4n

> <r_lp_tautomer_probability>
1

> <r_epik_Ionization_Penalty>
  0.0001

> <r_epik_Ionization_Penalty_Charging>
  0.0000

> <r_epik_Ionization_Penalty_Neutral>
  0.0001

> <r_epik_State_Penalty>
 -0.0000

> <r_epik_Charging_Adjusted_Penalty>
0

> <i_epik_Tot_Q>
0

> <i_epik_Tot_abs_Q>
0

> <s_lp_Force_Field>
OPLS3e

> <r_lp_Energy>
39.181146

> <b_lp_Chiralities_Consistent>
1

> <s_lp_Variant>
sdf/actives_sanitized.sdf:104-1

$$$$
sdf/actives_sanitized.sdf:105
                    3D
 Schrodinger Suite 2020-1.
 69 72  0  0  1  0            999 V2000
   -1.4864    4.4169    0.4022 C   0  0  0  0  0  0
   -1.7746    5.7447    0.6970 C   0  0  0  0  0  0
   -1.2637    6.3557    1.8374 C   0  0  0  0  0  0
   -0.6692    3.6474    1.2437 C   0  0  0  0  0  0
   -0.1369    4.2347    2.4102 C   0  0  0  0  0  0
   -0.4476    5.5979    2.6886 C   0  0  0  0  0  0
    0.3110    6.1429    4.1745 S   0  0  0  0  0  0
    1.0339    4.5600    4.4315 C   0  0  0  0  0  0
    0.7063    3.6758    3.4142 C   0  0  0  0  0  0
    1.8404    4.3125    5.5266 C   0  0  0  0  0  0
    1.5606    4.8977    6.6840 N   0  0  0  0  0  0
    2.8703    3.4880    5.3843 N   0  3  0  0  0  0
   -0.3222    2.3217    1.0457 O   0  0  0  0  0  0
   -0.7324    1.6296   -0.1405 C   0  0  2  0  0  0
   -0.4929    0.1244    0.0833 C   0  0  0  0  0  0
   -0.0200    2.1534   -1.3938 C   0  0  0  0  0  0
    1.2800    2.6679   -1.3190 C   0  0  0  0  0  0
    1.9115    3.1381   -2.4670 C   0  0  0  0  0  0
    1.2439    3.0939   -3.6886 C   0  0  0  0  0  0
   -0.0492    2.5831   -3.7729 C   0  0  0  0  0  0
   -0.6811    2.1125   -2.6251 C   0  0  0  0  0  0
    0.8988   -0.1639    0.1901 O   0  0  0  0  0  0
    1.3462   -1.4338    0.2189 C   0  0  0  0  0  0
    2.7359   -1.4052    0.2824 N   0  0  0  0  0  0
    0.6195   -2.4288    0.1764 O   0  0  0  0  0  0
    3.6438   -2.4771    0.3016 C   0  0  0  0  0  0
    4.9781   -2.1641    0.0379 C   0  0  0  0  0  0
    5.9445   -3.1657    0.0341 C   0  0  0  0  0  0
    5.5956   -4.4901    0.2968 C   0  0  0  0  0  0
    4.2559   -4.8029    0.5743 C   0  0  0  0  0  0
    3.2860   -3.8037    0.5810 C   0  0  0  0  0  0
    6.6221   -5.4144    0.2647 O   0  0  0  0  0  0
    6.3332   -6.7921    0.4948 C   0  0  0  0  0  0
    7.6252   -7.6236    0.3863 C   0  0  0  0  0  0
    8.7747   -7.0213    1.2293 N   0  3  0  0  0  0
    8.4822   -7.0112    2.7437 C   0  0  0  0  0  0
   10.1136   -7.7249    0.9335 C   0  0  0  0  0  0
   -1.9106    3.9959   -0.4965 H   0  0  0  0  0  0
   -2.4066    6.3111    0.0285 H   0  0  0  0  0  0
   -1.4938    7.3885    2.0566 H   0  0  0  0  0  0
    1.0535    2.6533    3.3836 H   0  0  0  0  0  0
    2.1389    4.7201    7.4918 H   0  0  0  0  0  0
    0.7676    5.5191    6.7504 H   0  0  0  0  0  0
    3.4710    3.2923    6.1716 H   0  0  0  0  0  0
   -1.8101    1.7628   -0.2536 H   0  0  0  0  0  0
   -0.9212   -0.4340   -0.7511 H   0  0  0  0  0  0
   -1.0060   -0.2064    0.9877 H   0  0  0  0  0  0
    1.8038    2.7006   -0.3749 H   0  0  0  0  0  0
    2.9149    3.5337   -2.4106 H   0  0  0  0  0  0
    1.7341    3.4581   -4.5795 H   0  0  0  0  0  0
   -0.5592    2.5514   -4.7245 H   0  0  0  0  0  0
   -1.6835    1.7155   -2.6950 H   0  0  0  0  0  0
    3.1564   -0.4879    0.2569 H   0  0  0  0  0  0
    5.2743   -1.1461   -0.1722 H   0  0  0  0  0  0
    6.9727   -2.9113   -0.1785 H   0  0  0  0  0  0
    3.9472   -5.8147    0.7885 H   0  0  0  0  0  0
    2.2705   -4.0838    0.8121 H   0  0  0  0  0  0
    5.8799   -6.9315    1.4775 H   0  0  0  0  0  0
    5.6167   -7.1536   -0.2447 H   0  0  0  0  0  0
    7.4967   -8.6537    0.7230 H   0  0  0  0  0  0
    7.9924   -7.6250   -0.6414 H   0  0  0  0  0  0
    8.3147   -8.0424    3.0582 H   0  0  0  0  0  0
    7.6026   -6.3896    2.9097 H   0  0  0  0  0  0
    9.3507   -6.5768    3.2402 H   0  0  0  0  0  0
   10.0160   -8.7696    1.2334 H   0  0  0  0  0  0
   10.8845   -7.2108    1.5091 H   0  0  0  0  0  0
   10.3026   -7.6291   -0.1364 H   0  0  0  0  0  0
    3.0537    3.0670    4.4853 H   0  0  0  0  0  0
    8.8781   -6.0589    0.9373 H   0  0  0  0  0  0
  1  4  2  0  0  0
  1  2  1  0  0  0
  1 38  1  0  0  0
  2  3  2  0  0  0
  2 39  1  0  0  0
  3  6  1  0  0  0
  3 40  1  0  0  0
  4 13  1  0  0  0
  4  5  1  0  0  0
  5  9  1  0  0  0
  5  6  2  0  0  0
  6  7  1  0  0  0
  7  8  1  0  0  0
  8  9  2  0  0  0
  8 10  1  0  0  0
  9 41  1  0  0  0
 10 11  1  0  0  0
 10 12  2  0  0  0
 11 42  1  0  0  0
 11 43  1  0  0  0
 12 44  1  0  0  0
 12 68  1  0  0  0
 13 14  1  0  0  0
 14 15  1  0  0  0
 14 16  1  0  0  0
 14 45  1  0  0  0
 15 22  1  0  0  0
 15 46  1  0  0  0
 15 47  1  0  0  0
 16 21  2  0  0  0
 16 17  1  0  0  0
 17 18  2  0  0  0
 17 48  1  0  0  0
 18 19  1  0  0  0
 18 49  1  0  0  0
 19 20  2  0  0  0
 19 50  1  0  0  0
 20 21  1  0  0  0
 20 51  1  0  0  0
 21 52  1  0  0  0
 22 23  1  0  0  0
 23 24  1  0  0  0
 23 25  2  0  0  0
 24 26  1  0  0  0
 24 53  1  0  0  0
 26 27  2  0  0  0
 26 31  1  0  0  0
 27 28  1  0  0  0
 27 54  1  0  0  0
 28 29  2  0  0  0
 28 55  1  0  0  0
 29 30  1  0  0  0
 29 32  1  0  0  0
 30 31  2  0  0  0
 30 56  1  0  0  0
 31 57  1  0  0  0
 32 33  1  0  0  0
 33 34  1  0  0  0
 33 58  1  0  0  0
 33 59  1  0  0  0
 34 35  1  0  0  0
 34 60  1  0  0  0
 34 61  1  0  0  0
 35 36  1  0  0  0
 35 37  1  0  0  0
 35 69  1  0  0  0
 36 62  1  0  0  0
 36 63  1  0  0  0
 36 64  1  0  0  0
 37 65  1  0  0  0
 37 66  1  0  0  0
 37 67  1  0  0  0
M  CHG  2  12   1  35   1
M  END
> <chembl_id>
CHEMBL597143

> <chembl_pref_name>
None

> <s_m_source_file>
sdf/actives_sanitized.sdf

> <i_m_source_file_index>
105

> <i_lp_mmshare_version>
49012

> <i_m_ct_stereo_status>
1

> <i_f3d_flags>
0

> <s_epik_input>
W0hdXE49QyhbTkgyXSlcYyhbY0hdMSlzYyhjMTIpW2NIXVtjSF1bY0hdYzJPW0NAQEhdKGMzW2NIXVtjSF1bY0hdW2NIXVtjSF0zKVtDSDJdT0MoPU8pW05IXWM0W2NIXVtjSF1jKFtjSF1bY0hdNClPW0NIMl1bQ0gyXU4oW0NIM10pW0NIM10=

> <s_epik_cmdline>
J2VwaWtfcHl0aG9uJywgJy1waHQnLCAnMC41JywgJy1waCcsICc3LjUnLCAnLW50JywgJy1tYScsICcyMDAnLCAnLWltYWUnLCAnPGluZmlsZS5tYWU+JywgJy1vbWFlJywgJzxvdXRmaWxlLm1hZT4n

> <r_lp_tautomer_probability>
1

> <r_epik_Ionization_Penalty>
  0.0846

> <r_epik_Ionization_Penalty_Charging>
  0.0846

> <r_epik_Ionization_Penalty_Neutral>
  0.0000

> <r_epik_State_Penalty>
 -0.0000

> <r_epik_Charging_Adjusted_Penalty>
0.0845950369464259

> <i_epik_Tot_Q>
2

> <i_epik_Tot_abs_Q>
2

> <s_epik_Chemistry_Notes>
This compound has an ester and may undergo hydrolysis at high or low pH. This compound has an imine and may undergo hydrolysis.

> <s_lp_Force_Field>
OPLS3e

> <r_lp_Energy>
52.294797

> <b_lp_Chiralities_Consistent>
1

> <s_lp_Variant>
sdf/actives_sanitized.sdf:105-1

$$$$
sdf/actives_sanitized.sdf:106
                    3D
 Schrodinger Suite 2020-1.
 64 69  0  0  1  0            999 V2000
   -0.4596    1.6316    0.0853 C   0  0  0  0  0  0
    0.0808    2.5308   -0.8505 C   0  0  0  0  0  0
   -0.3300    3.8616   -0.8960 C   0  0  0  0  0  0
   -1.3065    4.3184   -0.0153 C   0  0  0  0  0  0
   -1.8798    3.4426    0.9071 C   0  0  0  0  0  0
   -1.4601    2.1093    0.9508 C   0  0  0  0  0  0
   -0.4952   -5.4398   -3.5783 C   0  0  0  0  0  0
   -0.2832   -5.4168   -2.2007 C   0  0  0  0  0  0
   -0.7126   -3.0139   -3.5928 C   0  0  0  0  0  0
   -0.7073   -4.2406   -4.2628 C   0  0  0  0  0  0
   -0.5003   -2.9862   -2.2014 C   0  0  0  0  0  0
   -0.2914   -4.2120   -1.5481 N   0  0  0  0  0  0
   -0.1087   -4.0576   -0.2187 N   0  0  0  0  0  0
   -0.4300   -2.0190   -1.1683 C   0  0  0  0  0  0
   -0.1907   -2.7615   -0.0012 C   0  0  0  0  0  0
   -0.0349   -2.1311    1.3751 C   0  0  0  0  0  0
   -0.5242   -0.6617    1.3242 C   0  0  0  0  0  0
    0.0082    0.1446    0.0888 C   0  0  1  0  0  0
   -0.6045   -0.5048   -1.1939 C   0  0  0  0  0  0
    1.4877    0.1073    0.0132 N   0  0  0  0  0  0
    2.3620    0.6211    0.9025 C   0  0  0  0  0  0
    3.8088    0.3680    0.5759 C   0  0  0  0  0  0
    2.0498    1.2744    1.8981 O   0  0  0  0  0  0
    4.5023   -0.6996    1.1778 C   0  0  0  0  0  0
    5.8462   -0.9205    0.8758 C   0  0  0  0  0  0
    6.5308   -0.0912   -0.0227 C   0  0  0  0  0  0
    5.8378    0.9683   -0.6193 C   0  0  0  0  0  0
    4.4942    1.2044   -0.3267 C   0  0  0  0  0  0
    3.7306    2.5519   -1.1082 Cl  0  0  0  0  0  0
    7.9020   -0.3092   -0.3217 N   0  0  0  0  0  0
    8.7910    0.4841   -1.0062 C   0  0  0  0  0  0
    9.9716   -0.0751   -1.0615 N   0  0  0  0  0  0
    9.7793   -1.2021   -0.3954 C   0  0  0  0  0  0
    8.5646   -1.4103    0.0679 N   0  0  0  0  0  0
   10.8901   -2.2104   -0.2024 C   0  0  0  0  0  0
   -0.4927   -6.7638   -4.3197 C   0  0  0  0  0  0
   -2.9460    3.9463    1.8632 C   0  0  0  0  0  0
    3.7506   -1.7742    2.3126 Cl  0  0  0  0  0  0
    0.8307    2.1970   -1.5522 H   0  0  0  0  0  0
    0.1074    4.5374   -1.6160 H   0  0  0  0  0  0
   -1.6202    5.3517   -0.0554 H   0  0  0  0  0  0
   -1.9241    1.4584    1.6749 H   0  0  0  0  0  0
   -0.1134   -6.3037   -1.6066 H   0  0  0  0  0  0
   -0.8788   -2.0985   -4.1411 H   0  0  0  0  0  0
   -0.8724   -4.2531   -5.3307 H   0  0  0  0  0  0
   -0.5931   -2.6824    2.1327 H   0  0  0  0  0  0
    1.0112   -2.1549    1.6759 H   0  0  0  0  0  0
   -1.6150   -0.6896    1.2955 H   0  0  0  0  0  0
   -0.2668   -0.1610    2.2586 H   0  0  0  0  0  0
   -0.1441   -0.0872   -2.0911 H   0  0  0  0  0  0
   -1.6690   -0.2760   -1.2703 H   0  0  0  0  0  0
    1.8557   -0.6122   -0.5917 H   0  0  0  0  0  0
    6.3543   -1.7441    1.3570 H   0  0  0  0  0  0
    6.3317    1.6257   -1.3191 H   0  0  0  0  0  0
    8.5035    1.4383   -1.4209 H   0  0  0  0  0  0
   10.5402   -3.1921    0.1191 H   0  0  0  0  0  0
   11.6691   -1.8437    0.4667 H   0  0  0  0  0  0
   11.4060   -2.3817   -1.1479 H   0  0  0  0  0  0
   -0.6115   -6.6350   -5.3963 H   0  0  0  0  0  0
   -1.2990   -7.4009   -3.9547 H   0  0  0  0  0  0
    0.4450   -7.2915   -4.1426 H   0  0  0  0  0  0
   -3.1652    3.2249    2.6514 H   0  0  0  0  0  0
   -3.8652    4.1724    1.3221 H   0  0  0  0  0  0
   -2.6132    4.8667    2.3446 H   0  0  0  0  0  0
  1  2  2  0  0  0
  1  6  1  0  0  0
  1 18  1  0  0  0
  2  3  1  0  0  0
  2 39  1  0  0  0
  3  4  2  0  0  0
  3 40  1  0  0  0
  4  5  1  0  0  0
  4 41  1  0  0  0
  5  6  2  0  0  0
  5 37  1  0  0  0
  6 42  1  0  0  0
  7  8  2  0  0  0
  7 10  1  0  0  0
  7 36  1  0  0  0
  8 12  1  0  0  0
  8 43  1  0  0  0
  9 11  1  0  0  0
  9 10  2  0  0  0
  9 44  1  0  0  0
 10 45  1  0  0  0
 11 12  1  0  0  0
 11 14  2  0  0  0
 12 13  1  0  0  0
 13 15  2  0  0  0
 14 15  1  0  0  0
 14 19  1  0  0  0
 15 16  1  0  0  0
 16 17  1  0  0  0
 16 46  1  0  0  0
 16 47  1  0  0  0
 17 18  1  0  0  0
 17 48  1  0  0  0
 17 49  1  0  0  0
 18 19  1  0  0  0
 18 20  1  0  0  0
 19 50  1  0  0  0
 19 51  1  0  0  0
 20 21  1  0  0  0
 20 52  1  0  0  0
 21 22  1  0  0  0
 21 23  2  0  0  0
 22 24  2  0  0  0
 22 28  1  0  0  0
 24 25  1  0  0  0
 24 38  1  0  0  0
 25 26  2  0  0  0
 25 53  1  0  0  0
 26 27  1  0  0  0
 26 30  1  0  0  0
 27 28  2  0  0  0
 27 54  1  0  0  0
 28 29  1  0  0  0
 30 31  1  0  0  0
 30 34  1  0  0  0
 31 32  2  0  0  0
 31 55  1  0  0  0
 32 33  1  0  0  0
 33 34  2  0  0  0
 33 35  1  0  0  0
 35 56  1  0  0  0
 35 57  1  0  0  0
 35 58  1  0  0  0
 36 59  1  0  0  0
 36 60  1  0  0  0
 36 61  1  0  0  0
 37 62  1  0  0  0
 37 63  1  0  0  0
 37 64  1  0  0  0
M  END
> <chembl_id>
CHEMBL3628954

> <chembl_pref_name>
None

> <i_m_ct_stereo_status>
1

> <s_m_source_file>
sdf/actives_sanitized.sdf

> <i_m_source_file_index>
106

> <i_lp_mmshare_version>
49012

> <i_f3d_flags>
0

> <s_epik_input>
W2NIXTFbY0hdYyhbQ0gzXSlbY0hdbihjMTIpbmMzYzJbQ0gyXVtDQF0oW0NIMl1bQ0gyXTMpKGM0W2NIXVtjSF1bY0hdYyhbY0hdNClbQ0gzXSlbTkhdQyg9TyljNWMoQ2wpW2NIXWMoW2NIXWM1Q2wpLW42W2NIXW5jKG42KVtDSDNd

> <s_epik_cmdline>
J2VwaWtfcHl0aG9uJywgJy1waHQnLCAnMC41JywgJy1waCcsICc3LjUnLCAnLW50JywgJy1tYScsICcyMDAnLCAnLWltYWUnLCAnPGluZmlsZS5tYWU+JywgJy1vbWFlJywgJzxvdXRmaWxlLm1hZT4n

> <r_lp_tautomer_probability>
1

> <r_epik_Ionization_Penalty>
  0.0001

> <r_epik_Ionization_Penalty_Charging>
  0.0000

> <r_epik_Ionization_Penalty_Neutral>
  0.0001

> <r_epik_State_Penalty>
 -0.0000

> <r_epik_Charging_Adjusted_Penalty>
0

> <i_epik_Tot_Q>
0

> <i_epik_Tot_abs_Q>
0

> <s_lp_Force_Field>
OPLS3e

> <r_lp_Energy>
37.19891

> <b_lp_Chiralities_Consistent>
1

> <s_lp_Variant>
sdf/actives_sanitized.sdf:106-1

$$$$
sdf/actives_sanitized.sdf:107
                    3D
 Schrodinger Suite 2020-1.
 67 72  0  0  1  0            999 V2000
    6.0029   -1.9906   -6.3646 N   0  0  0  0  0  0
    0.2235   -0.2799   -0.1796 C   0  0  0  0  0  0
    6.8937   -1.1941   -7.0584 C   0  0  0  0  0  0
   -0.6783    0.8418   -0.0731 C   0  0  0  0  0  0
    2.5443   -1.1330   -0.7706 C   0  0  0  0  0  0
    7.4486   -1.7627   -8.0954 N   0  0  0  0  0  0
    1.7015   -0.2959    0.2173 C   0  0  2  0  0  0
   -0.5555   -1.3207   -0.6649 C   0  0  0  0  0  0
    5.2990   -1.6226   -5.1968 C   0  0  0  0  0  0
   -1.8444   -0.9053   -0.8689 N   0  0  0  0  0  0
    5.9952   -3.2045   -7.0396 C   0  0  0  0  0  0
    3.0339   -0.4515   -1.8301 N   0  0  0  0  0  0
   -0.5307    2.1657    0.3713 C   0  0  0  0  0  0
    4.7413   -0.3437   -5.0936 C   0  0  0  0  0  0
   -1.4900    4.3930    0.9289 C   0  0  0  0  0  0
   -1.6332    3.0313    0.4098 C   0  0  0  0  0  0
    3.8014   -0.9002   -2.9244 C   0  0  0  0  0  0
   -1.9673    0.4163   -0.5079 C   0  0  0  0  0  0
   -1.9421    1.3399    4.2536 C   0  0  0  0  0  0
    4.0018    0.0161   -3.9669 C   0  0  0  0  0  0
    6.9093   -3.0186   -8.1129 C   0  0  0  0  0  0
   -0.4787    1.2871    3.9251 C   0  0  0  0  0  0
    1.8913   -0.7440    1.6950 C   0  0  0  0  0  0
   -2.2617    5.3586    0.4443 N   0  3  0  0  0  0
    2.6872   -2.3413   -0.5789 O   0  0  0  0  0  0
    0.0340    0.2888    3.0805 C   0  0  0  0  0  0
    5.0994   -2.5418   -4.1615 C   0  0  0  0  0  0
   -2.3386    2.2461    5.0215 O   0  0  0  0  0  0
    1.3796    0.2832    2.6999 C   0  0  0  0  0  0
    4.3648   -2.1839   -3.0315 C   0  0  0  0  0  0
   -2.8747    2.5650   -0.0421 C   0  0  0  0  0  0
   -3.0736    1.2677   -0.5114 C   0  0  0  0  0  0
   -0.5936    4.6321    1.8793 N   0  0  0  0  0  0
    3.4757    1.2633   -3.9018 F   0  0  0  0  0  0
   -2.6946    0.4891    3.7257 O   0  5  0  0  0  0
    5.3069   -4.4135   -6.8622 C   0  0  0  0  0  0
    0.4097    2.2515    4.4287 C   0  0  0  0  0  0
    1.7592    2.2328    4.0783 C   0  0  0  0  0  0
    2.2417    1.2567    3.2098 C   0  0  0  0  0  0
    7.1491   -4.0616   -9.0191 C   0  0  0  0  0  0
    5.5677   -5.4312   -7.7826 C   0  0  0  0  0  0
    6.4666   -5.2637   -8.8353 C   0  0  0  0  0  0
    7.0920   -0.1880   -6.7179 H   0  0  0  0  0  0
    2.0854    0.7245    0.1483 H   0  0  0  0  0  0
   -0.2907   -2.3459   -0.8807 H   0  0  0  0  0  0
   -2.5665   -1.5209   -1.2150 H   0  0  0  0  0  0
    2.7869    0.5263   -1.8772 H   0  0  0  0  0  0
    0.4342    2.5084    0.7140 H   0  0  0  0  0  0
    4.8679    0.3757   -5.8900 H   0  0  0  0  0  0
    1.4042   -1.7045    1.8756 H   0  0  0  0  0  0
    2.9486   -0.9191    1.9056 H   0  0  0  0  0  0
   -2.1775    6.2977    0.8041 H   0  0  0  0  0  0
   -0.6210   -0.4674    2.6704 H   0  0  0  0  0  0
    5.5260   -3.5327   -4.2131 H   0  0  0  0  0  0
    4.2584   -2.9252   -2.2566 H   0  0  0  0  0  0
   -3.7291    3.2246   -0.0114 H   0  0  0  0  0  0
   -4.0486    0.9383   -0.8391 H   0  0  0  0  0  0
   -0.4933    5.5626    2.2565 H   0  0  0  0  0  0
   -0.0364    3.8715    2.2417 H   0  0  0  0  0  0
    4.5978   -4.5638   -6.0621 H   0  0  0  0  0  0
    0.0620    3.0337    5.0885 H   0  0  0  0  0  0
    2.4283    2.9848    4.4697 H   0  0  0  0  0  0
    3.2838    1.2660    2.9251 H   0  0  0  0  0  0
    7.8404   -3.9407   -9.8404 H   0  0  0  0  0  0
    5.0546   -6.3762   -7.6782 H   0  0  0  0  0  0
    6.6342   -6.0797   -9.5231 H   0  0  0  0  0  0
   -2.9368    5.1448   -0.2752 H   0  0  0  0  0  0
  1  3  1  0  0  0
  1  9  1  0  0  0
  1 11  1  0  0  0
  2  7  1  0  0  0
  2  4  1  0  0  0
  2  8  2  0  0  0
  3  6  2  0  0  0
  3 43  1  0  0  0
  4 13  2  0  0  0
  4 18  1  0  0  0
  5 12  1  0  0  0
  5  7  1  0  0  0
  5 25  2  0  0  0
  6 21  1  0  0  0
  7 23  1  0  0  0
  7 44  1  0  0  0
  8 10  1  0  0  0
  8 45  1  0  0  0
  9 14  2  0  0  0
  9 27  1  0  0  0
 10 18  1  0  0  0
 10 46  1  0  0  0
 11 21  2  0  0  0
 11 36  1  0  0  0
 12 17  1  0  0  0
 12 47  1  0  0  0
 13 16  1  0  0  0
 13 48  1  0  0  0
 14 20  1  0  0  0
 14 49  1  0  0  0
 15 16  1  0  0  0
 15 24  2  0  0  0
 15 33  1  0  0  0
 16 31  2  0  0  0
 17 30  1  0  0  0
 17 20  2  0  0  0
 18 32  2  0  0  0
 19 22  1  0  0  0
 19 28  2  0  0  0
 19 35  1  0  0  0
 20 34  1  0  0  0
 21 40  1  0  0  0
 22 26  2  0  0  0
 22 37  1  0  0  0
 23 29  1  0  0  0
 23 50  1  0  0  0
 23 51  1  0  0  0
 24 52  1  0  0  0
 24 67  1  0  0  0
 26 29  1  0  0  0
 26 53  1  0  0  0
 27 30  2  0  0  0
 27 54  1  0  0  0
 29 39  2  0  0  0
 30 55  1  0  0  0
 31 32  1  0  0  0
 31 56  1  0  0  0
 32 57  1  0  0  0
 33 58  1  0  0  0
 33 59  1  0  0  0
 36 41  2  0  0  0
 36 60  1  0  0  0
 37 38  2  0  0  0
 37 61  1  0  0  0
 38 39  1  0  0  0
 38 62  1  0  0  0
 39 63  1  0  0  0
 40 42  2  0  0  0
 40 64  1  0  0  0
 41 42  1  0  0  0
 41 65  1  0  0  0
 42 66  1  0  0  0
M  CHG  2  24   1  35  -1
M  END
> <chembl_id>
CHEMBL364434

> <chembl_pref_name>
None

> <s_m_source_file>
sdf/actives_sanitized.sdf

> <i_m_source_file_index>
107

> <i_lp_mmshare_version>
49012

> <i_m_ct_stereo_status>
1

> <i_f3d_flags>
0

> <s_epik_input>
W2NIXTFbY0hdW2NIXVtjSF1jKGMxMiluW2NIXW4yLWMzW2NIXWMoRiljKFtjSF1bY0hdMylbTkhdQyg9TylbQ0BIXShbQ0gyXWMoW2NIXVtjSF1bY0hdNClbY0hdYzRDKD1PKVtPSF0pYzVbY0hdW25IXWMoYzU2KVtjSF1bY0hdYyhbY0hdNikvQyg9Ti9bSF0pW05IMl0=

> <s_epik_cmdline>
J2VwaWtfcHl0aG9uJywgJy1waHQnLCAnMC41JywgJy1waCcsICc3LjUnLCAnLW50JywgJy1tYScsICcyMDAnLCAnLWltYWUnLCAnPGluZmlsZS5tYWU+JywgJy1vbWFlJywgJzxvdXRmaWxlLm1hZT4n

> <r_epik_Ionization_Penalty>
  0.0115

> <r_epik_Ionization_Penalty_Charging>
  0.0013

> <r_epik_Ionization_Penalty_Neutral>
  0.0102

> <r_epik_State_Penalty>
  0.0078

> <r_epik_Charging_Adjusted_Penalty>
0.00905445346243633

> <i_epik_Tot_Q>
0

> <i_epik_Tot_abs_Q>
2

> <s_epik_Chemistry_Notes>
This compound has an imine and may undergo hydrolysis.

> <s_lp_Force_Field>
OPLS3e

> <r_lp_Energy>
48.092602

> <b_lp_Chiralities_Consistent>
1

> <s_lp_Variant>
sdf/actives_sanitized.sdf:107-1

$$$$
sdf/actives_sanitized.sdf:108
                    3D
 Schrodinger Suite 2020-1.
 65 70  0  0  1  0            999 V2000
    3.9585   -1.2416   -7.4742 N   0  0  0  0  0  0
    0.0354   -0.0787   -0.0693 C   0  0  0  0  0  0
    5.2786   -1.3275   -7.8751 C   0  0  0  0  0  0
   -0.8254    1.0767   -0.0977 C   0  0  0  0  0  0
    2.2572   -0.7257   -1.1121 C   0  0  0  0  0  0
    5.4554   -1.5853   -9.1430 N   0  0  0  0  0  0
    1.5527   -0.0782    0.1016 C   0  0  2  0  0  0
   -0.8107   -1.1685   -0.1994 C   0  0  0  0  0  0
    3.5109   -0.9364   -6.1683 C   0  0  0  0  0  0
   -2.1109   -0.7537   -0.3162 N   0  0  0  0  0  0
    3.2135   -1.4689   -8.6255 C   0  0  0  0  0  0
    2.0864   -0.0802   -2.2878 N   0  0  0  0  0  0
   -0.5988    2.4590   -0.0012 C   0  0  0  0  0  0
    2.3692   -0.1529   -5.9644 C   0  0  0  0  0  0
   -1.4330    4.8063    0.0293 C   0  0  0  0  0  0
   -1.6700    3.3628   -0.0663 C   0  0  0  0  0  0
    2.5947   -0.4035   -3.5608 C   0  0  0  0  0  0
   -2.1664    0.6203   -0.2567 C   0  0  0  0  0  0
    1.9178    0.1175   -4.6720 C   0  0  0  0  0  0
    4.1867   -1.6783   -9.6415 C   0  0  0  0  0  0
   -2.3763    5.5893    0.5400 N   0  3  0  0  0  0
    1.9705   -0.6882    1.4683 C   0  0  0  0  0  0
    2.8928   -1.7727   -0.9765 O   0  0  0  0  0  0
    4.1853   -1.4622   -5.0601 C   0  0  0  0  0  0
    3.7372   -1.1941   -3.7675 C   0  0  0  0  0  0
   -2.9685    2.8596   -0.2258 C   0  0  0  0  0  0
   -3.2499    1.4979   -0.3241 C   0  0  0  0  0  0
   -0.2783    5.3046   -0.3980 N   0  0  0  0  0  0
    0.8168    0.8907   -4.5099 F   0  0  0  0  0  0
    1.4269    0.0848    2.6655 C   0  0  0  0  0  0
    1.8398   -1.5314   -8.9029 C   0  0  0  0  0  0
    3.7829   -1.9419  -10.9583 C   0  0  0  0  0  0
    2.0795    1.2417    3.1002 C   0  0  0  0  0  0
    0.2698   -0.3531    3.3160 C   0  0  0  0  0  0
    1.4715   -1.7948  -10.2243 C   0  0  0  0  0  0
    2.4165   -1.9941  -11.2298 C   0  0  0  0  0  0
   -0.2349    0.3662    4.3962 C   0  0  0  0  0  0
    1.5754    1.9598    4.1814 C   0  0  0  0  0  0
    0.4204    1.5190    4.8240 C   0  0  0  0  0  0
    6.0696   -1.1690   -7.1565 H   0  0  0  0  0  0
    1.9120    0.9525    0.1086 H   0  0  0  0  0  0
   -0.5863   -2.2254   -0.2201 H   0  0  0  0  0  0
   -2.8802   -1.3995   -0.4228 H   0  0  0  0  0  0
    1.4449    0.6993   -2.2801 H   0  0  0  0  0  0
    0.4077    2.8261    0.1325 H   0  0  0  0  0  0
    1.8357    0.2723   -6.8015 H   0  0  0  0  0  0
   -2.2220    6.5847    0.6083 H   0  0  0  0  0  0
    1.6618   -1.7336    1.5366 H   0  0  0  0  0  0
    3.0587   -0.7131    1.5551 H   0  0  0  0  0  0
    5.0608   -2.0821   -5.1900 H   0  0  0  0  0  0
    4.3031   -1.5992   -2.9431 H   0  0  0  0  0  0
   -3.7981    3.5486   -0.2849 H   0  0  0  0  0  0
   -4.2641    1.1467   -0.4481 H   0  0  0  0  0  0
   -0.1050    6.2973   -0.3391 H   0  0  0  0  0  0
    0.4196    4.6872   -0.7863 H   0  0  0  0  0  0
    1.0875   -1.3938   -8.1411 H   0  0  0  0  0  0
    4.5069   -2.1017  -11.7438 H   0  0  0  0  0  0
    2.9730    1.5859    2.5998 H   0  0  0  0  0  0
   -0.2417   -1.2443    2.9821 H   0  0  0  0  0  0
    0.4223   -1.8491  -10.4754 H   0  0  0  0  0  0
    2.0833   -2.1964  -12.2373 H   0  0  0  0  0  0
   -1.1301    0.0318    4.9000 H   0  0  0  0  0  0
    2.0773    2.8540    4.5203 H   0  0  0  0  0  0
    0.0298    2.0762    5.6629 H   0  0  0  0  0  0
   -3.2434    5.1846    0.8620 H   0  0  0  0  0  0
  1  3  1  0  0  0
  1  9  1  0  0  0
  1 11  1  0  0  0
  2  7  1  0  0  0
  2  4  1  0  0  0
  2  8  2  0  0  0
  3  6  2  0  0  0
  3 40  1  0  0  0
  4 13  2  0  0  0
  4 18  1  0  0  0
  5 12  1  0  0  0
  5  7  1  0  0  0
  5 23  2  0  0  0
  6 20  1  0  0  0
  7 22  1  0  0  0
  7 41  1  0  0  0
  8 10  1  0  0  0
  8 42  1  0  0  0
  9 14  2  0  0  0
  9 24  1  0  0  0
 10 18  1  0  0  0
 10 43  1  0  0  0
 11 20  2  0  0  0
 11 31  1  0  0  0
 12 17  1  0  0  0
 12 44  1  0  0  0
 13 16  1  0  0  0
 13 45  1  0  0  0
 14 19  1  0  0  0
 14 46  1  0  0  0
 15 16  1  0  0  0
 15 21  2  0  0  0
 15 28  1  0  0  0
 16 26  2  0  0  0
 17 25  1  0  0  0
 17 19  2  0  0  0
 18 27  2  0  0  0
 19 29  1  0  0  0
 20 32  1  0  0  0
 21 47  1  0  0  0
 21 65  1  0  0  0
 22 30  1  0  0  0
 22 48  1  0  0  0
 22 49  1  0  0  0
 24 25  2  0  0  0
 24 50  1  0  0  0
 25 51  1  0  0  0
 26 27  1  0  0  0
 26 52  1  0  0  0
 27 53  1  0  0  0
 28 54  1  0  0  0
 28 55  1  0  0  0
 30 33  2  0  0  0
 30 34  1  0  0  0
 31 35  2  0  0  0
 31 56  1  0  0  0
 32 36  2  0  0  0
 32 57  1  0  0  0
 33 38  1  0  0  0
 33 58  1  0  0  0
 34 37  2  0  0  0
 34 59  1  0  0  0
 35 36  1  0  0  0
 35 60  1  0  0  0
 36 61  1  0  0  0
 37 39  1  0  0  0
 37 62  1  0  0  0
 38 39  2  0  0  0
 38 63  1  0  0  0
 39 64  1  0  0  0
M  CHG  1  21   1
M  END
> <chembl_id>
CHEMBL3350245

> <chembl_pref_name>
None

> <i_m_ct_stereo_status>
1

> <s_m_source_file>
sdf/actives_sanitized.sdf

> <i_m_source_file_index>
108

> <i_lp_mmshare_version>
49012

> <i_f3d_flags>
0

> <s_epik_input>
W2NIXTFbY0hdW2NIXVtjSF1jKGMxMiluW2NIXW4yLWMzW2NIXWMoRiljKFtjSF1bY0hdMylbTkhdQyg9TylbQ0BIXShbQ0gyXWM0W2NIXVtjSF1bY0hdW2NIXVtjSF00KWM1W2NIXVtuSF1jKGM1NilbY0hdW2NIXWMoW2NIXTYpL0MoPU4vW0hdKVtOSDJd

> <s_epik_cmdline>
J2VwaWtfcHl0aG9uJywgJy1waHQnLCAnMC41JywgJy1waCcsICc3LjUnLCAnLW50JywgJy1tYScsICcyMDAnLCAnLWltYWUnLCAnPGluZmlsZS5tYWU+JywgJy1vbWFlJywgJzxvdXRmaWxlLm1hZT4n

> <r_epik_Ionization_Penalty>
  0.0112

> <r_epik_Ionization_Penalty_Charging>
  0.0010

> <r_epik_Ionization_Penalty_Neutral>
  0.0102

> <r_epik_State_Penalty>
  0.0078

> <r_epik_Charging_Adjusted_Penalty>
0.00877873498810205

> <i_epik_Tot_Q>
1

> <i_epik_Tot_abs_Q>
1

> <s_epik_Chemistry_Notes>
This compound has an imine and may undergo hydrolysis.

> <s_lp_Force_Field>
OPLS3e

> <r_lp_Energy>
49.226379

> <b_lp_Chiralities_Consistent>
1

> <s_lp_Variant>
sdf/actives_sanitized.sdf:108-1

$$$$
sdf/actives_sanitized.sdf:109
                    3D
 Schrodinger Suite 2020-1.
 54 58  0  0  1  0            999 V2000
    0.0525   -0.0862    0.0845 C   0  0  0  0  0  0
   -0.6262    1.1227    0.2223 N   0  0  0  0  0  0
   -1.9603    0.9182    0.2422 N   0  0  0  0  0  0
   -2.1604   -0.3789    0.2789 C   0  0  0  0  0  0
   -0.9436   -1.0524    0.1727 C   0  0  0  0  0  0
    7.3118   -3.1132    0.0792 N   0  0  0  0  0  0
    1.4536   -0.2893   -0.2104 C   0  0  0  0  0  0
    7.9260   -4.0039    0.9412 C   0  0  0  0  0  0
   -3.5672   -0.9400    0.3696 C   0  0  0  0  0  0
    9.1843   -4.2464    0.6822 N   0  0  0  0  0  0
    8.2968   -2.7490   -0.8298 C   0  0  0  0  0  0
    5.9562   -2.7175    0.1216 C   0  0  0  0  0  0
    1.9629   -1.4161    0.3309 N   0  0  0  0  0  0
   -0.1493    2.4576    0.0763 C   0  0  0  0  0  0
    9.4433   -3.4789   -0.4175 C   0  0  0  0  0  0
    5.2364   -2.5060   -1.0611 C   0  0  0  0  0  0
    2.8802    4.5066    1.0890 C   0  0  0  0  0  0
    3.2990   -1.8238    0.2242 C   0  0  0  0  0  0
    3.9099   -2.0759   -1.0152 C   0  0  0  0  0  0
    1.0771    2.8340    0.6423 C   0  0  0  0  0  0
    1.5880    4.1363    0.5046 C   0  0  0  0  0  0
    3.6403    5.3964    0.4619 N   0  3  0  0  0  0
    2.0937    0.5073   -0.9000 O   0  0  0  0  0  0
    5.3355   -2.4825    1.3550 C   0  0  0  0  0  0
   10.6935   -2.4974   -2.2238 N   0  0  0  0  0  0
    4.0105   -2.0500    1.4052 C   0  0  0  0  0  0
   -4.2671   -0.6594   -0.7296 F   0  0  0  0  0  0
   -3.5549   -2.2656    0.5117 F   0  0  0  0  0  0
   -4.2246   -0.4322    1.4126 F   0  0  0  0  0  0
    3.2589    3.9418    2.2295 N   0  0  0  0  0  0
    8.3489   -1.8832   -1.9332 C   0  0  0  0  0  0
    3.2285   -1.9186   -2.1748 F   0  0  0  0  0  0
   10.6277   -3.3242   -1.1507 C   0  0  0  0  0  0
   -0.8940    3.4202   -0.6208 C   0  0  0  0  0  0
    9.5826   -1.8069   -2.5865 C   0  0  0  0  0  0
    0.8200    5.0699   -0.2108 C   0  0  0  0  0  0
   -0.4094    4.7173   -0.7638 C   0  0  0  0  0  0
   -0.8129   -2.1238    0.1168 H   0  0  0  0  0  0
    7.3588   -4.4514    1.7446 H   0  0  0  0  0  0
    1.3672   -1.9734    0.9258 H   0  0  0  0  0  0
    5.6889   -2.6971   -2.0229 H   0  0  0  0  0  0
    1.6399    2.0992    1.2004 H   0  0  0  0  0  0
    4.5344    5.6589    0.8505 H   0  0  0  0  0  0
    5.8746   -2.6264    2.2804 H   0  0  0  0  0  0
    3.5464   -1.8795    2.3662 H   0  0  0  0  0  0
    4.1454    4.1893    2.6439 H   0  0  0  0  0  0
    2.6547    3.2706    2.6807 H   0  0  0  0  0  0
    7.5023   -1.3006   -2.2641 H   0  0  0  0  0  0
   11.5298   -3.8554   -0.8851 H   0  0  0  0  0  0
   -1.8447    3.1691   -1.0694 H   0  0  0  0  0  0
    9.6958   -1.1591   -3.4435 H   0  0  0  0  0  0
    1.1637    6.0868   -0.3391 H   0  0  0  0  0  0
   -0.9870    5.4506   -1.3075 H   0  0  0  0  0  0
    3.3252    5.7983   -0.4090 H   0  0  0  0  0  0
  1  2  1  0  0  0
  1  5  2  0  0  0
  1  7  1  0  0  0
  2  3  1  0  0  0
  2 14  1  0  0  0
  3  4  2  0  0  0
  4  5  1  0  0  0
  4  9  1  0  0  0
  5 38  1  0  0  0
  6 12  1  0  0  0
  6  8  1  0  0  0
  6 11  1  0  0  0
  7 13  1  0  0  0
  7 23  2  0  0  0
  8 10  2  0  0  0
  8 39  1  0  0  0
  9 27  1  0  0  0
  9 28  1  0  0  0
  9 29  1  0  0  0
 10 15  1  0  0  0
 11 15  2  0  0  0
 11 31  1  0  0  0
 12 24  2  0  0  0
 12 16  1  0  0  0
 13 18  1  0  0  0
 13 40  1  0  0  0
 14 20  2  0  0  0
 14 34  1  0  0  0
 15 33  1  0  0  0
 16 19  2  0  0  0
 16 41  1  0  0  0
 17 21  1  0  0  0
 17 22  2  0  0  0
 17 30  1  0  0  0
 18 19  1  0  0  0
 18 26  2  0  0  0
 19 32  1  0  0  0
 20 21  1  0  0  0
 20 42  1  0  0  0
 21 36  2  0  0  0
 22 43  1  0  0  0
 22 54  1  0  0  0
 24 26  1  0  0  0
 24 44  1  0  0  0
 25 35  1  0  0  0
 25 33  2  0  0  0
 26 45  1  0  0  0
 30 46  1  0  0  0
 30 47  1  0  0  0
 31 35  2  0  0  0
 31 48  1  0  0  0
 33 49  1  0  0  0
 34 37  2  0  0  0
 34 50  1  0  0  0
 35 51  1  0  0  0
 36 37  1  0  0  0
 36 52  1  0  0  0
 37 53  1  0  0  0
M  CHG  1  22   1
M  END
> <chembl_id>
CHEMBL426439

> <chembl_pref_name>
None

> <s_m_source_file>
sdf/actives_sanitized.sdf

> <i_m_source_file_index>
109

> <i_lp_mmshare_version>
49012

> <i_m_ct_stereo_status>
1

> <i_f3d_flags>
0

> <s_epik_input>
W2NIXTFbY0hdW2NIXWMoL0MoPU4vW0hdKVtOSDJdKVtjSF1jMS1uKG5jKFtjSF0yKUMoRikoRilGKWMyQyg9TylbTkhdYyhbY0hdW2NIXTMpYyhGKVtjSF1jMy1uNFtjSF1uYyhjNDUpW2NIXW5bY0hdW2NIXTU=

> <s_epik_cmdline>
J2VwaWtfcHl0aG9uJywgJy1waHQnLCAnMC41JywgJy1waCcsICc3LjUnLCAnLW50JywgJy1tYScsICcyMDAnLCAnLWltYWUnLCAnPGluZmlsZS5tYWU+JywgJy1vbWFlJywgJzxvdXRmaWxlLm1hZT4n

> <r_lp_tautomer_probability>
1

> <r_epik_Ionization_Penalty>
  0.0242

> <r_epik_Ionization_Penalty_Charging>
  0.0242

> <r_epik_Ionization_Penalty_Neutral>
  0.0000

> <r_epik_State_Penalty>
  0.0188

> <r_epik_Charging_Adjusted_Penalty>
0.0430376671887555

> <i_epik_Tot_Q>
1

> <i_epik_Tot_abs_Q>
1

> <s_epik_Chemistry_Notes>
This compound has an imine and may undergo hydrolysis.

> <s_lp_Force_Field>
OPLS3e

> <r_lp_Energy>
47.851682

> <b_lp_Chiralities_Consistent>
1

> <s_lp_Variant>
sdf/actives_sanitized.sdf:109-1

$$$$
sdf/actives_sanitized.sdf:110
                    3D
 Schrodinger Suite 2020-1.
 54 57  0  0  1  0            999 V2000
    0.1664    2.7074    0.1116 C   0  0  0  0  0  0
   -0.5002    3.9227    0.2187 C   0  0  0  0  0  0
   -1.8867    3.9936    0.1277 C   0  0  0  0  0  0
   -0.5361    1.5099   -0.0886 C   0  0  0  0  0  0
   -1.9424    1.5455   -0.1876 C   0  0  0  0  0  0
   -2.6012    2.8048   -0.0761 C   0  0  0  0  0  0
   -4.3424    2.6374   -0.2242 S   0  0  0  0  0  0
   -4.1959    0.8978   -0.4402 C   0  0  0  0  0  0
   -2.8729    0.4848   -0.3888 C   0  0  0  0  0  0
   -5.3138    0.1026   -0.6124 C   0  0  0  0  0  0
   -6.3451    0.5731   -1.3023 N   0  0  0  0  0  0
   -5.3142   -1.1164   -0.0877 N   0  3  0  0  0  0
    0.0260    0.2511   -0.2105 O   0  0  0  0  0  0
    1.4386    0.0621   -0.0537 C   0  0  2  0  0  0
    1.7801   -1.3603   -0.5332 C   0  0  0  0  0  0
    1.8765    0.2709    1.3980 C   0  0  0  0  0  0
    1.0506   -0.1270    2.4558 C   0  0  0  0  0  0
    1.4573    0.0743    3.7719 C   0  0  0  0  0  0
    2.6891    0.6715    4.0295 C   0  0  0  0  0  0
    3.5185    1.0682    2.9829 C   0  0  0  0  0  0
    3.1123    0.8674    1.6665 C   0  0  0  0  0  0
    1.3272   -1.5360   -1.9937 N   0  3  0  0  0  0
    1.4766   -2.9614   -2.5484 C   0  0  0  0  0  0
    0.5207   -3.9641   -1.9209 C   0  0  0  0  0  0
   -0.8088   -4.0176   -2.3485 C   0  0  0  0  0  0
   -1.6841   -4.9398   -1.7807 C   0  0  0  0  0  0
   -1.2252   -5.8088   -0.7926 C   0  0  0  0  0  0
    0.1016   -5.7661   -0.3687 C   0  0  0  0  0  0
    0.9775   -4.8444   -0.9363 C   0  0  0  0  0  0
    1.2428    2.7132    0.1892 H   0  0  0  0  0  0
    0.0693    4.8273    0.3756 H   0  0  0  0  0  0
   -2.3942    4.9439    0.2124 H   0  0  0  0  0  0
   -2.5712   -0.5468   -0.4960 H   0  0  0  0  0  0
   -7.1670    0.0018   -1.4333 H   0  0  0  0  0  0
   -6.3036    1.5033   -1.6928 H   0  0  0  0  0  0
   -6.1242   -1.7094   -0.1949 H   0  0  0  0  0  0
    1.9624    0.7698   -0.7003 H   0  0  0  0  0  0
    2.8513   -1.5672   -0.5360 H   0  0  0  0  0  0
    1.2425   -2.1206    0.0347 H   0  0  0  0  0  0
    0.0947   -0.5912    2.2609 H   0  0  0  0  0  0
    0.8206   -0.2305    4.5894 H   0  0  0  0  0  0
    3.0042    0.8281    5.0508 H   0  0  0  0  0  0
    4.4722    1.5302    3.1923 H   0  0  0  0  0  0
    3.7585    1.1778    0.8581 H   0  0  0  0  0  0
    0.3561   -1.2666   -2.0646 H   0  0  0  0  0  0
    1.2884   -2.8467   -3.6169 H   0  0  0  0  0  0
    2.5257   -3.2229   -2.3972 H   0  0  0  0  0  0
   -1.1651   -3.3460   -3.1164 H   0  0  0  0  0  0
   -2.7131   -4.9834   -2.1061 H   0  0  0  0  0  0
   -1.9037   -6.5251   -0.3528 H   0  0  0  0  0  0
    0.4494   -6.4460    0.3954 H   0  0  0  0  0  0
    2.0062   -4.8142   -0.6071 H   0  0  0  0  0  0
   -4.5143   -1.4355    0.4389 H   0  0  0  0  0  0
    1.8627   -0.9052   -2.5732 H   0  0  0  0  0  0
  1  2  2  0  0  0
  1  4  1  0  0  0
  1 30  1  0  0  0
  2  3  1  0  0  0
  2 31  1  0  0  0
  3  6  2  0  0  0
  3 32  1  0  0  0
  4  5  2  0  0  0
  4 13  1  0  0  0
  5  9  1  0  0  0
  5  6  1  0  0  0
  6  7  1  0  0  0
  7  8  1  0  0  0
  8  9  2  0  0  0
  8 10  1  0  0  0
  9 33  1  0  0  0
 10 11  1  0  0  0
 10 12  2  0  0  0
 11 34  1  0  0  0
 11 35  1  0  0  0
 12 36  1  0  0  0
 12 53  1  0  0  0
 13 14  1  0  0  0
 14 15  1  0  0  0
 14 16  1  0  0  0
 14 37  1  0  0  0
 15 22  1  0  0  0
 15 38  1  0  0  0
 15 39  1  0  0  0
 16 17  2  0  0  0
 16 21  1  0  0  0
 17 18  1  0  0  0
 17 40  1  0  0  0
 18 19  2  0  0  0
 18 41  1  0  0  0
 19 20  1  0  0  0
 19 42  1  0  0  0
 20 21  2  0  0  0
 20 43  1  0  0  0
 21 44  1  0  0  0
 22 23  1  0  0  0
 22 45  1  0  0  0
 22 54  1  0  0  0
 23 24  1  0  0  0
 23 46  1  0  0  0
 23 47  1  0  0  0
 24 25  2  0  0  0
 24 29  1  0  0  0
 25 26  1  0  0  0
 25 48  1  0  0  0
 26 27  2  0  0  0
 26 49  1  0  0  0
 27 28  1  0  0  0
 27 50  1  0  0  0
 28 29  2  0  0  0
 28 51  1  0  0  0
 29 52  1  0  0  0
M  CHG  2  12   1  22   1
M  END
> <chembl_id>
CHEMBL599001

> <chembl_pref_name>
None

> <s_m_source_file>
sdf/actives_sanitized.sdf

> <i_m_source_file_index>
110

> <i_lp_mmshare_version>
49012

> <i_m_ct_stereo_status>
1

> <i_f3d_flags>
0

> <s_epik_input>
W0hdXE49QyhbTkgyXSlcYyhbY0hdMSlzYyhjMTIpW2NIXVtjSF1bY0hdYzJPW0NAQEhdKGMzW2NIXVtjSF1bY0hdW2NIXVtjSF0zKVtDSDJdW05IXVtDSDJdYzRbY0hdW2NIXVtjSF1bY0hdW2NIXTQ=

> <s_epik_cmdline>
J2VwaWtfcHl0aG9uJywgJy1waHQnLCAnMC41JywgJy1waCcsICc3LjUnLCAnLW50JywgJy1tYScsICcyMDAnLCAnLWltYWUnLCAnPGluZmlsZS5tYWU+JywgJy1vbWFlJywgJzxvdXRmaWxlLm1hZT4n

> <r_epik_Ionization_Penalty>
  0.3199

> <r_epik_Ionization_Penalty_Charging>
  0.3199

> <r_epik_Ionization_Penalty_Neutral>
  0.0000

> <r_epik_State_Penalty>
  0.3044

> <r_epik_Charging_Adjusted_Penalty>
0.624296058648998

> <i_epik_Tot_Q>
2

> <i_epik_Tot_abs_Q>
2

> <s_epik_Chemistry_Notes>
This compound has an imine and may undergo hydrolysis.

> <s_lp_Force_Field>
OPLS3e

> <r_lp_Energy>
40.172408

> <b_lp_Chiralities_Consistent>
1

> <s_lp_Variant>
sdf/actives_sanitized.sdf:110-1

$$$$
sdf/actives_sanitized.sdf:110
                    3D
 Schrodinger Suite 2020-1.
 53 56  0  0  1  0            999 V2000
    0.1819    2.6431   -0.1771 C   0  0  0  0  0  0
   -0.4695    3.8664   -0.2864 C   0  0  0  0  0  0
   -1.8580    3.9410   -0.3262 C   0  0  0  0  0  0
   -0.5384    1.4418   -0.1005 C   0  0  0  0  0  0
   -1.9476    1.4807   -0.1399 C   0  0  0  0  0  0
   -2.5904    2.7481   -0.2520 C   0  0  0  0  0  0
   -4.3381    2.5861   -0.2806 S   0  0  0  0  0  0
   -4.2165    0.8374   -0.1348 C   0  0  0  0  0  0
   -2.8955    0.4181   -0.0817 C   0  0  0  0  0  0
   -5.3474    0.0433   -0.1056 C   0  0  0  0  0  0
   -6.4372    0.4894    0.5061 N   0  0  0  0  0  0
   -5.3016   -1.1498   -0.6838 N   0  3  0  0  0  0
    0.0078    0.1748    0.0087 O   0  0  0  0  0  0
    1.4267   -0.0022    0.1207 C   0  0  2  0  0  0
    1.7449   -1.4942   -0.1069 C   0  0  0  0  0  0
    1.9407    0.4693    1.4842 C   0  0  0  0  0  0
    1.1636    0.3019    2.6362 C   0  0  0  0  0  0
    1.6393    0.7409    3.8687 C   0  0  0  0  0  0
    2.8919    1.3448    3.9494 C   0  0  0  0  0  0
    3.6733    1.5138    2.8085 C   0  0  0  0  0  0
    3.1975    1.0758    1.5754 C   0  0  0  0  0  0
    1.3860   -1.8956   -1.4623 N   0  0  2  0  0  0
    1.6790   -3.3057   -1.6775 C   0  0  0  0  0  0
    1.1977   -3.7236   -3.0571 C   0  0  0  0  0  0
    2.0869   -3.7304   -4.1357 C   0  0  0  0  0  0
    1.6469   -4.1264   -5.3963 C   0  0  0  0  0  0
    0.3213   -4.5179   -5.5730 C   0  0  0  0  0  0
   -0.5689   -4.5177   -4.5010 C   0  0  0  0  0  0
   -0.1297   -4.1219   -3.2402 C   0  0  0  0  0  0
    1.2608    2.6461   -0.1506 H   0  0  0  0  0  0
    0.1136    4.7742   -0.3413 H   0  0  0  0  0  0
   -2.3540    4.8971   -0.4121 H   0  0  0  0  0  0
   -2.6058   -0.6191    0.0039 H   0  0  0  0  0  0
   -7.2717   -0.0782    0.5287 H   0  0  0  0  0  0
   -6.4250    1.3981    0.9460 H   0  0  0  0  0  0
   -6.1168   -1.7448   -0.6767 H   0  0  0  0  0  0
    1.9185    0.5718   -0.6684 H   0  0  0  0  0  0
    2.8121   -1.6652    0.0462 H   0  0  0  0  0  0
    1.2026   -2.1019    0.6197 H   0  0  0  0  0  0
    0.1920   -0.1676    2.5789 H   0  0  0  0  0  0
    1.0396    0.6131    4.7578 H   0  0  0  0  0  0
    3.2611    1.6845    4.9060 H   0  0  0  0  0  0
    4.6439    1.9824    2.8803 H   0  0  0  0  0  0
    3.8065    1.2092    0.6930 H   0  0  0  0  0  0
    1.9321   -1.3466   -2.1110 H   0  0  0  0  0  0
    2.7594   -3.4453   -1.6077 H   0  0  0  0  0  0
    1.1712   -3.9015   -0.9167 H   0  0  0  0  0  0
    3.1153   -3.4283   -3.9998 H   0  0  0  0  0  0
    2.3298   -4.1309   -6.2332 H   0  0  0  0  0  0
   -0.0200   -4.8252   -6.5507 H   0  0  0  0  0  0
   -1.5941   -4.8240   -4.6469 H   0  0  0  0  0  0
   -0.8199   -4.1210   -2.4087 H   0  0  0  0  0  0
   -4.4526   -1.4524   -1.1384 H   0  0  0  0  0  0
  1  2  2  0  0  0
  1  4  1  0  0  0
  1 30  1  0  0  0
  2  3  1  0  0  0
  2 31  1  0  0  0
  3  6  2  0  0  0
  3 32  1  0  0  0
  4  5  2  0  0  0
  4 13  1  0  0  0
  5  9  1  0  0  0
  5  6  1  0  0  0
  6  7  1  0  0  0
  7  8  1  0  0  0
  8  9  2  0  0  0
  8 10  1  0  0  0
  9 33  1  0  0  0
 10 11  1  0  0  0
 10 12  2  0  0  0
 11 34  1  0  0  0
 11 35  1  0  0  0
 12 36  1  0  0  0
 12 53  1  0  0  0
 13 14  1  0  0  0
 14 15  1  0  0  0
 14 16  1  0  0  0
 14 37  1  0  0  0
 15 22  1  0  0  0
 15 38  1  0  0  0
 15 39  1  0  0  0
 16 17  2  0  0  0
 16 21  1  0  0  0
 17 18  1  0  0  0
 17 40  1  0  0  0
 18 19  2  0  0  0
 18 41  1  0  0  0
 19 20  1  0  0  0
 19 42  1  0  0  0
 20 21  2  0  0  0
 20 43  1  0  0  0
 21 44  1  0  0  0
 22 23  1  0  0  0
 22 45  1  0  0  0
 23 24  1  0  0  0
 23 46  1  0  0  0
 23 47  1  0  0  0
 24 25  2  0  0  0
 24 29  1  0  0  0
 25 26  1  0  0  0
 25 48  1  0  0  0
 26 27  2  0  0  0
 26 49  1  0  0  0
 27 28  1  0  0  0
 27 50  1  0  0  0
 28 29  2  0  0  0
 28 51  1  0  0  0
 29 52  1  0  0  0
M  CHG  1  12   1
M  END
> <chembl_id>
CHEMBL599001

> <chembl_pref_name>
None

> <s_m_source_file>
sdf/actives_sanitized.sdf

> <i_m_source_file_index>
110

> <i_lp_mmshare_version>
49012

> <i_m_ct_stereo_status>
1

> <i_f3d_flags>
0

> <s_epik_input>
W0hdXE49QyhbTkgyXSlcYyhbY0hdMSlzYyhjMTIpW2NIXVtjSF1bY0hdYzJPW0NAQEhdKGMzW2NIXVtjSF1bY0hdW2NIXVtjSF0zKVtDSDJdW05IXVtDSDJdYzRbY0hdW2NIXVtjSF1bY0hdW2NIXTQ=

> <s_epik_cmdline>
J2VwaWtfcHl0aG9uJywgJy1waHQnLCAnMC41JywgJy1waCcsICc3LjUnLCAnLW50JywgJy1tYScsICcyMDAnLCAnLWltYWUnLCAnPGluZmlsZS5tYWU+JywgJy1vbWFlJywgJzxvdXRmaWxlLm1hZT4n

> <r_epik_Ionization_Penalty>
  0.5409

> <r_epik_Ionization_Penalty_Charging>
  0.0095

> <r_epik_Ionization_Penalty_Neutral>
  0.5314

> <r_epik_State_Penalty>
  0.5403

> <r_epik_Charging_Adjusted_Penalty>
0.549716233577435

> <i_epik_Tot_Q>
1

> <i_epik_Tot_abs_Q>
1

> <s_epik_Chemistry_Notes>
This compound has an imine and may undergo hydrolysis.

> <s_lp_Force_Field>
OPLS3e

> <r_lp_Energy>
45.559426

> <b_lp_Chiralities_Consistent>
1

> <s_lp_Variant>
sdf/actives_sanitized.sdf:110-2

$$$$
sdf/actives_sanitized.sdf:111
                    3D
 Schrodinger Suite 2020-1.
 53 56  0  0  1  0            999 V2000
    0.0592    2.7269    0.0449 C   0  0  0  0  0  0
   -0.6521    3.9200    0.1039 C   0  0  0  0  0  0
   -2.0429    3.9282    0.1259 C   0  0  0  0  0  0
   -0.6003    1.4893    0.0101 C   0  0  0  0  0  0
   -2.0103    1.4612    0.0272 C   0  0  0  0  0  0
   -2.7153    2.6990    0.0853 C   0  0  0  0  0  0
   -4.4532    2.4526    0.0991 S   0  0  0  0  0  0
   -4.2449    0.7078    0.0223 C   0  0  0  0  0  0
   -2.9045    0.3521   -0.0034 C   0  0  0  0  0  0
   -5.3347   -0.1421    0.0152 C   0  0  0  0  0  0
   -6.4397    0.2242   -0.6215 N   0  0  0  0  0  0
   -5.2357   -1.3065    0.6432 N   0  3  0  0  0  0
    0.0093    0.2474   -0.0470 O   0  0  0  0  0  0
    1.4376    0.1333   -0.0147 C   0  0  2  0  0  0
    1.8051   -1.3034   -0.4329 C   0  0  0  0  0  0
    2.0193    0.5108    1.3537 C   0  0  0  0  0  0
    1.2962    0.2776    2.5296 C   0  0  0  0  0  0
    1.8397    0.6236    3.7636 C   0  0  0  0  0  0
    3.1050    1.2028    3.8218 C   0  0  0  0  0  0
    3.8319    1.4387    2.6572 C   0  0  0  0  0  0
    3.2889    1.0922    1.4227 C   0  0  0  0  0  0
    1.3893   -2.2468    0.5509 O   0  0  0  0  0  0
    1.7199   -3.5472    0.4490 C   0  0  0  0  0  0
    1.2337   -4.2183    1.5631 N   0  0  0  0  0  0
    2.3549   -4.0423   -0.4859 O   0  0  0  0  0  0
    1.3782   -5.5878    1.8054 C   0  0  0  0  0  0
    2.6480   -6.1796    1.8490 C   0  0  0  0  0  0
    2.7726   -7.5476    2.0927 C   0  0  0  0  0  0
    1.6340   -8.3282    2.2930 C   0  0  0  0  0  0
    0.3687   -7.7417    2.2507 C   0  0  0  0  0  0
    0.2366   -6.3734    2.0081 C   0  0  0  0  0  0
   -0.9998   -5.8215    1.9716 F   0  0  0  0  0  0
    1.7564   -9.6540    2.5288 F   0  0  0  0  0  0
    1.1369    2.7823    0.0293 H   0  0  0  0  0  0
   -0.1144    4.8567    0.1327 H   0  0  0  0  0  0
   -2.5855    4.8614    0.1718 H   0  0  0  0  0  0
   -2.5643   -0.6721   -0.0480 H   0  0  0  0  0  0
   -7.2413   -0.3890   -0.6334 H   0  0  0  0  0  0
   -6.4723    1.1167   -1.0924 H   0  0  0  0  0  0
   -6.0175   -1.9450    0.6471 H   0  0  0  0  0  0
    1.8457    0.7979   -0.7789 H   0  0  0  0  0  0
    2.8858   -1.3722   -0.5700 H   0  0  0  0  0  0
    1.3445   -1.5434   -1.3926 H   0  0  0  0  0  0
    0.3167   -0.1764    2.4902 H   0  0  0  0  0  0
    1.2839    0.4420    4.6718 H   0  0  0  0  0  0
    3.5270    1.4705    4.7793 H   0  0  0  0  0  0
    4.8129    1.8875    2.7119 H   0  0  0  0  0  0
    3.8567    1.2747    0.5219 H   0  0  0  0  0  0
    0.6757   -3.6880    2.2164 H   0  0  0  0  0  0
    3.5373   -5.5847    1.6961 H   0  0  0  0  0  0
    3.7520   -8.0020    2.1260 H   0  0  0  0  0  0
   -0.5108   -8.3489    2.4063 H   0  0  0  0  0  0
   -4.3791   -1.5452    1.1210 H   0  0  0  0  0  0
  1  4  2  0  0  0
  1  2  1  0  0  0
  1 34  1  0  0  0
  2  3  2  0  0  0
  2 35  1  0  0  0
  3  6  1  0  0  0
  3 36  1  0  0  0
  4 13  1  0  0  0
  4  5  1  0  0  0
  5  9  1  0  0  0
  5  6  2  0  0  0
  6  7  1  0  0  0
  7  8  1  0  0  0
  8  9  2  0  0  0
  8 10  1  0  0  0
  9 37  1  0  0  0
 10 11  1  0  0  0
 10 12  2  0  0  0
 11 38  1  0  0  0
 11 39  1  0  0  0
 12 40  1  0  0  0
 12 53  1  0  0  0
 13 14  1  0  0  0
 14 16  1  0  0  0
 14 15  1  0  0  0
 14 41  1  0  0  0
 15 22  1  0  0  0
 15 42  1  0  0  0
 15 43  1  0  0  0
 16 17  2  0  0  0
 16 21  1  0  0  0
 17 18  1  0  0  0
 17 44  1  0  0  0
 18 19  2  0  0  0
 18 45  1  0  0  0
 19 20  1  0  0  0
 19 46  1  0  0  0
 20 21  2  0  0  0
 20 47  1  0  0  0
 21 48  1  0  0  0
 22 23  1  0  0  0
 23 24  1  0  0  0
 23 25  2  0  0  0
 24 26  1  0  0  0
 24 49  1  0  0  0
 26 27  2  0  0  0
 26 31  1  0  0  0
 27 28  1  0  0  0
 27 50  1  0  0  0
 28 29  2  0  0  0
 28 51  1  0  0  0
 29 30  1  0  0  0
 29 33  1  0  0  0
 30 31  2  0  0  0
 30 52  1  0  0  0
 31 32  1  0  0  0
M  CHG  1  12   1
M  END
> <chembl_id>
CHEMBL598996

> <chembl_pref_name>
None

> <s_m_source_file>
sdf/actives_sanitized.sdf

> <i_m_source_file_index>
111

> <i_lp_mmshare_version>
49012

> <i_m_ct_stereo_status>
1

> <i_f3d_flags>
0

> <s_epik_input>
W0hdXE49QyhbTkgyXSlcYyhbY0hdMSlzYyhjMTIpW2NIXVtjSF1bY0hdYzJPW0NAQEhdKGMzW2NIXVtjSF1bY0hdW2NIXVtjSF0zKVtDSDJdT0MoPU8pW05IXWM0W2NIXVtjSF1jKEYpW2NIXWM0Rg==

> <s_epik_cmdline>
J2VwaWtfcHl0aG9uJywgJy1waHQnLCAnMC41JywgJy1waCcsICc3LjUnLCAnLW50JywgJy1tYScsICcyMDAnLCAnLWltYWUnLCAnPGluZmlsZS5tYWU+JywgJy1vbWFlJywgJzxvdXRmaWxlLm1hZT4n

> <r_lp_tautomer_probability>
1

> <r_epik_Ionization_Penalty>
  0.0095

> <r_epik_Ionization_Penalty_Charging>
  0.0095

> <r_epik_Ionization_Penalty_Neutral>
  0.0000

> <r_epik_State_Penalty>
 -0.0000

> <r_epik_Charging_Adjusted_Penalty>
0.00945881282357717

> <i_epik_Tot_Q>
1

> <i_epik_Tot_abs_Q>
1

> <s_epik_Chemistry_Notes>
This compound has an ester and may undergo hydrolysis at high or low pH. This compound has an imine and may undergo hydrolysis.

> <s_lp_Force_Field>
OPLS3e

> <r_lp_Energy>
36.622418

> <b_lp_Chiralities_Consistent>
1

> <s_lp_Variant>
sdf/actives_sanitized.sdf:111-1

$$$$
sdf/actives_sanitized.sdf:112
                    3D
 Schrodinger Suite 2020-1.
 56 59  0  0  1  0            999 V2000
   -2.7643   -0.7025   -0.0220 C   0  0  0  0  0  0
   -4.0738   -1.1677    0.0209 C   0  0  0  0  0  0
   -4.5509   -1.8748    1.1200 C   0  0  0  0  0  0
   -1.8792   -0.9279    1.0428 C   0  0  0  0  0  0
   -2.3300   -1.6409    2.1727 C   0  0  0  0  0  0
   -3.6765   -2.1084    2.1905 C   0  0  0  0  0  0
   -4.0417   -2.9690    3.6763 S   0  0  0  0  0  0
   -2.4075   -2.7103    4.2727 C   0  0  0  0  0  0
   -1.6383   -1.9950    3.3672 C   0  0  0  0  0  0
   -2.0187   -3.1737    5.5154 C   0  0  0  0  0  0
   -2.4951   -4.3317    5.9542 N   0  0  0  0  0  0
   -1.1706   -2.4434    6.2281 N   0  3  0  0  0  0
   -0.5594   -0.5153    1.1022 O   0  0  0  0  0  0
    0.0150    0.2449    0.0323 C   0  0  2  0  0  0
    1.5403    0.2398    0.2265 C   0  0  0  0  0  0
   -0.5323    1.6741    0.0044 C   0  0  0  0  0  0
   -0.8384    2.3443    1.1944 C   0  0  0  0  0  0
   -1.3395    3.6426    1.1548 C   0  0  0  0  0  0
   -1.5342    4.2698   -0.0737 C   0  0  0  0  0  0
   -1.2299    3.6113   -1.2629 C   0  0  0  0  0  0
   -0.7280    2.3132   -1.2238 C   0  0  0  0  0  0
    2.0459   -1.0818    0.0690 O   0  0  0  0  0  0
    3.3631   -1.3378    0.1918 C   0  0  0  0  0  0
    3.5687   -2.6965   -0.0191 N   0  0  0  0  0  0
    4.2185   -0.4867    0.4512 O   0  0  0  0  0  0
    4.8183   -3.2900    0.0273 C   0  0  0  0  0  0
    4.9935   -4.6360    0.2483 N   0  0  0  0  0  0
    6.2867   -4.9908    0.2828 N   0  0  0  0  0  0
    6.9677   -3.8902    0.0467 C   0  0  0  0  0  0
    6.1086   -2.7971   -0.1206 C   0  0  0  0  0  0
    3.9849   -5.6509    0.5230 C   0  0  0  0  0  0
    8.4767   -3.9297   -0.0079 C   0  0  0  0  0  0
   -2.4495   -0.1600   -0.9002 H   0  0  0  0  0  0
   -4.7314   -0.9765   -0.8148 H   0  0  0  0  0  0
   -5.5702   -2.2327    1.1424 H   0  0  0  0  0  0
   -0.6064   -1.7306    3.5458 H   0  0  0  0  0  0
   -2.2216   -4.6779    6.8621 H   0  0  0  0  0  0
   -3.1346   -4.8597    5.3782 H   0  0  0  0  0  0
   -0.8737   -2.7618    7.1388 H   0  0  0  0  0  0
   -0.2034   -0.2500   -0.9167 H   0  0  0  0  0  0
    1.7964    0.6270    1.2144 H   0  0  0  0  0  0
    2.0094    0.8934   -0.5112 H   0  0  0  0  0  0
   -0.6872    1.8627    2.1496 H   0  0  0  0  0  0
   -1.5751    4.1618    2.0722 H   0  0  0  0  0  0
   -1.9230    5.2770   -0.1045 H   0  0  0  0  0  0
   -1.3814    4.1062   -2.2109 H   0  0  0  0  0  0
   -0.4926    1.8065   -2.1486 H   0  0  0  0  0  0
    2.7609   -3.2802   -0.1786 H   0  0  0  0  0  0
    6.3988   -1.7761   -0.3204 H   0  0  0  0  0  0
    3.0383   -5.3744    0.0583 H   0  0  0  0  0  0
    3.8463   -5.7349    1.6012 H   0  0  0  0  0  0
    4.3007   -6.6150    0.1213 H   0  0  0  0  0  0
    8.9012   -2.9508   -0.2322 H   0  0  0  0  0  0
    8.8357   -4.6155   -0.7759 H   0  0  0  0  0  0
    8.9066   -4.2532    0.9406 H   0  0  0  0  0  0
   -0.8355   -1.5649    5.8605 H   0  0  0  0  0  0
  1  4  2  0  0  0
  1  2  1  0  0  0
  1 33  1  0  0  0
  2  3  2  0  0  0
  2 34  1  0  0  0
  3  6  1  0  0  0
  3 35  1  0  0  0
  4  5  1  0  0  0
  4 13  1  0  0  0
  5  9  1  0  0  0
  5  6  2  0  0  0
  6  7  1  0  0  0
  7  8  1  0  0  0
  8  9  2  0  0  0
  8 10  1  0  0  0
  9 36  1  0  0  0
 10 11  1  0  0  0
 10 12  2  0  0  0
 11 37  1  0  0  0
 11 38  1  0  0  0
 12 39  1  0  0  0
 12 56  1  0  0  0
 13 14  1  0  0  0
 14 16  1  0  0  0
 14 15  1  0  0  0
 14 40  1  0  0  0
 15 22  1  0  0  0
 15 41  1  0  0  0
 15 42  1  0  0  0
 16 17  2  0  0  0
 16 21  1  0  0  0
 17 18  1  0  0  0
 17 43  1  0  0  0
 18 19  2  0  0  0
 18 44  1  0  0  0
 19 20  1  0  0  0
 19 45  1  0  0  0
 20 21  2  0  0  0
 20 46  1  0  0  0
 21 47  1  0  0  0
 22 23  1  0  0  0
 23 24  1  0  0  0
 23 25  2  0  0  0
 24 26  1  0  0  0
 24 48  1  0  0  0
 26 27  1  0  0  0
 26 30  2  0  0  0
 27 28  1  0  0  0
 27 31  1  0  0  0
 28 29  2  0  0  0
 29 30  1  0  0  0
 29 32  1  0  0  0
 30 49  1  0  0  0
 31 50  1  0  0  0
 31 51  1  0  0  0
 31 52  1  0  0  0
 32 53  1  0  0  0
 32 54  1  0  0  0
 32 55  1  0  0  0
M  CHG  1  12   1
M  END
> <chembl_id>
CHEMBL606177

> <chembl_pref_name>
None

> <s_m_source_file>
sdf/actives_sanitized.sdf

> <i_m_source_file_index>
112

> <i_lp_mmshare_version>
49012

> <i_m_ct_stereo_status>
1

> <i_f3d_flags>
0

> <s_epik_input>
W0hdXE49QyhbTkgyXSlcYyhbY0hdMSlzYyhjMTIpW2NIXVtjSF1bY0hdYzJPW0NAQEhdKGMzW2NIXVtjSF1bY0hdW2NIXVtjSF0zKVtDSDJdT0MoPU8pW05IXWM0bihbQ0gzXSluYyhbY0hdNClbQ0gzXQ==

> <s_epik_cmdline>
J2VwaWtfcHl0aG9uJywgJy1waHQnLCAnMC41JywgJy1waCcsICc3LjUnLCAnLW50JywgJy1tYScsICcyMDAnLCAnLWltYWUnLCAnPGluZmlsZS5tYWU+JywgJy1vbWFlJywgJzxvdXRmaWxlLm1hZT4n

> <r_lp_tautomer_probability>
1

> <r_epik_Ionization_Penalty>
  0.0095

> <r_epik_Ionization_Penalty_Charging>
  0.0095

> <r_epik_Ionization_Penalty_Neutral>
  0.0000

> <r_epik_State_Penalty>
 -0.0000

> <r_epik_Charging_Adjusted_Penalty>
0.00945881282357717

> <i_epik_Tot_Q>
1

> <i_epik_Tot_abs_Q>
1

> <s_epik_Chemistry_Notes>
This compound has an ester and may undergo hydrolysis at high or low pH. This compound has an imine and may undergo hydrolysis.

> <s_lp_Force_Field>
OPLS3e

> <r_lp_Energy>
27.614895

> <b_lp_Chiralities_Consistent>
1

> <s_lp_Variant>
sdf/actives_sanitized.sdf:112-1

$$$$
sdf/actives_sanitized.sdf:113
                    3D
 Schrodinger Suite 2020-1.
 71 74  0  0  1  0            999 V2000
   -2.5055    3.6892   -4.1748 C   0  0  0  0  0  0
   -2.3390    4.0609   -5.5040 C   0  0  0  0  0  0
   -2.6590    3.1900   -6.5405 C   0  0  0  0  0  0
   -3.0044    2.4237   -3.8326 C   0  0  0  0  0  0
   -3.3355    1.5146   -4.8582 C   0  0  0  0  0  0
   -3.1548    1.9206   -6.2127 C   0  0  0  0  0  0
   -3.6263    0.6550   -7.3341 S   0  0  0  0  0  0
   -4.0526   -0.4166   -6.0057 C   0  0  0  0  0  0
   -3.8477    0.1875   -4.7743 C   0  0  0  0  0  0
   -4.5498   -1.6848   -6.2415 C   0  0  0  0  0  0
   -4.0952   -2.3776   -7.2781 N   0  0  0  0  0  0
   -5.4648   -2.1727   -5.4133 N   0  3  0  0  0  0
   -3.2106    1.9532   -2.5474 O   0  0  0  0  0  0
   -2.9237    2.7810   -1.4140 C   0  0  2  0  0  0
   -2.9151    1.8724   -0.1664 C   0  0  0  0  0  0
   -3.9462    3.9105   -1.2667 C   0  0  0  0  0  0
   -5.2811    3.7223   -1.6442 C   0  0  0  0  0  0
   -6.1970    4.7623   -1.5112 C   0  0  0  0  0  0
   -5.7786    5.9888   -1.0002 C   0  0  0  0  0  0
   -4.4529    6.1844   -0.6199 C   0  0  0  0  0  0
   -3.5365    5.1447   -0.7526 C   0  0  0  0  0  0
   -1.9351    0.8377   -0.2547 O   0  0  0  0  0  0
   -0.6250    1.0742   -0.0272 C   0  0  0  0  0  0
    0.0826   -0.0978   -0.2645 N   0  0  0  0  0  0
   -0.1615    2.1635    0.3197 O   0  0  0  0  0  0
    1.4559   -0.1785   -0.1333 C   0  0  0  0  0  0
    2.2501    0.1568    0.9677 C   0  0  0  0  0  0
    3.5260   -0.1665    0.5651 N   0  0  0  0  0  0
    3.5718   -0.7065   -0.6586 N   0  0  0  0  0  0
    2.3308   -0.7282   -1.0856 C   0  0  0  0  0  0
    1.9280    0.7349    2.3342 C   0  0  0  0  0  0
    2.0266   -1.2980   -2.4543 C   0  0  0  0  0  0
    4.7654   -0.0399    1.3202 C   0  0  0  0  0  0
    1.0239   -0.2741    3.0605 N   0  3  0  0  0  0
    0.4775    0.1797    4.4265 C   0  0  0  0  0  0
   -0.0412   -1.0658    5.1612 C   0  0  0  0  0  0
   -0.6154    1.2462    4.2232 C   0  0  0  0  0  0
   -2.2417    4.4069   -3.4131 H   0  0  0  0  0  0
   -1.9547    5.0439   -5.7348 H   0  0  0  0  0  0
   -2.5263    3.4896   -7.5702 H   0  0  0  0  0  0
   -4.0515   -0.3020   -3.8331 H   0  0  0  0  0  0
   -4.4506   -3.3049   -7.4601 H   0  0  0  0  0  0
   -3.3977   -1.9708   -7.8844 H   0  0  0  0  0  0
   -5.8458   -3.0943   -5.5697 H   0  0  0  0  0  0
   -1.9264    3.2095   -1.5334 H   0  0  0  0  0  0
   -3.8915    1.3995   -0.0574 H   0  0  0  0  0  0
   -2.7582    2.4620    0.7389 H   0  0  0  0  0  0
   -5.6111    2.7732   -2.0408 H   0  0  0  0  0  0
   -7.2272    4.6187   -1.8026 H   0  0  0  0  0  0
   -6.4894    6.7955   -0.8974 H   0  0  0  0  0  0
   -4.1371    7.1385   -0.2240 H   0  0  0  0  0  0
   -2.5090    5.3006   -0.4569 H   0  0  0  0  0  0
   -0.4166   -0.8828   -0.6568 H   0  0  0  0  0  0
    2.7853    0.8584    2.9966 H   0  0  0  0  0  0
    1.3791    1.6728    2.2880 H   0  0  0  0  0  0
    0.9627   -1.2624   -2.6897 H   0  0  0  0  0  0
    2.3344   -2.3410   -2.5341 H   0  0  0  0  0  0
    2.5430   -0.7489   -3.2424 H   0  0  0  0  0  0
    4.7605   -0.7573    2.1414 H   0  0  0  0  0  0
    4.8449    0.9712    1.7212 H   0  0  0  0  0  0
    5.6323   -0.2311    0.6843 H   0  0  0  0  0  0
    0.2407   -0.5018    2.4644 H   0  0  0  0  0  0
    1.3423    0.5888    4.9520 H   0  0  0  0  0  0
   -0.3994   -0.8092    6.1589 H   0  0  0  0  0  0
    0.7438   -1.8137    5.2820 H   0  0  0  0  0  0
   -0.8683   -1.5343    4.6258 H   0  0  0  0  0  0
   -1.0486    1.5442    5.1785 H   0  0  0  0  0  0
   -1.4278    0.8738    3.5974 H   0  0  0  0  0  0
   -0.2277    2.1522    3.7581 H   0  0  0  0  0  0
   -5.7857   -1.6126   -4.6369 H   0  0  0  0  0  0
    1.5588   -1.1198    3.1995 H   0  0  0  0  0  0
  1  4  2  0  0  0
  1  2  1  0  0  0
  1 38  1  0  0  0
  2  3  2  0  0  0
  2 39  1  0  0  0
  3  6  1  0  0  0
  3 40  1  0  0  0
  4 13  1  0  0  0
  4  5  1  0  0  0
  5  9  1  0  0  0
  5  6  2  0  0  0
  6  7  1  0  0  0
  7  8  1  0  0  0
  8  9  2  0  0  0
  8 10  1  0  0  0
  9 41  1  0  0  0
 10 11  1  0  0  0
 10 12  2  0  0  0
 11 42  1  0  0  0
 11 43  1  0  0  0
 12 44  1  0  0  0
 12 70  1  0  0  0
 13 14  1  0  0  0
 14 15  1  0  0  0
 14 16  1  0  0  0
 14 45  1  0  0  0
 15 22  1  0  0  0
 15 46  1  0  0  0
 15 47  1  0  0  0
 16 21  2  0  0  0
 16 17  1  0  0  0
 17 18  2  0  0  0
 17 48  1  0  0  0
 18 19  1  0  0  0
 18 49  1  0  0  0
 19 20  2  0  0  0
 19 50  1  0  0  0
 20 21  1  0  0  0
 20 51  1  0  0  0
 21 52  1  0  0  0
 22 23  1  0  0  0
 23 24  1  0  0  0
 23 25  2  0  0  0
 24 26  1  0  0  0
 24 53  1  0  0  0
 26 27  2  0  0  0
 26 30  1  0  0  0
 27 28  1  0  0  0
 27 31  1  0  0  0
 28 29  1  0  0  0
 28 33  1  0  0  0
 29 30  2  0  0  0
 30 32  1  0  0  0
 31 34  1  0  0  0
 31 54  1  0  0  0
 31 55  1  0  0  0
 32 56  1  0  0  0
 32 57  1  0  0  0
 32 58  1  0  0  0
 33 59  1  0  0  0
 33 60  1  0  0  0
 33 61  1  0  0  0
 34 35  1  0  0  0
 34 62  1  0  0  0
 34 71  1  0  0  0
 35 36  1  0  0  0
 35 37  1  0  0  0
 35 63  1  0  0  0
 36 64  1  0  0  0
 36 65  1  0  0  0
 36 66  1  0  0  0
 37 67  1  0  0  0
 37 68  1  0  0  0
 37 69  1  0  0  0
M  CHG  2  12   1  34   1
M  END
> <chembl_id>
CHEMBL604954

> <chembl_pref_name>
None

> <s_m_source_file>
sdf/actives_sanitized.sdf

> <i_m_source_file_index>
113

> <i_lp_mmshare_version>
49012

> <i_m_ct_stereo_status>
1

> <i_f3d_flags>
0

> <s_epik_input>
W0hdXE49QyhbTkgyXSlcYyhbY0hdMSlzYyhjMTIpW2NIXVtjSF1bY0hdYzJPW0NAQEhdKGMzW2NIXVtjSF1bY0hdW2NIXVtjSF0zKVtDSDJdT0MoPU8pW05IXWM0YyhuKFtDSDNdKW5jNFtDSDNdKVtDSDJdW05IXVtDSF0oW0NIM10pW0NIM10=

> <s_epik_cmdline>
J2VwaWtfcHl0aG9uJywgJy1waHQnLCAnMC41JywgJy1waCcsICc3LjUnLCAnLW50JywgJy1tYScsICcyMDAnLCAnLWltYWUnLCAnPGluZmlsZS5tYWU+JywgJy1vbWFlJywgJzxvdXRmaWxlLm1hZT4n

> <r_lp_tautomer_probability>
1

> <r_epik_Ionization_Penalty>
  0.0281

> <r_epik_Ionization_Penalty_Charging>
  0.0281

> <r_epik_Ionization_Penalty_Neutral>
  0.0000

> <r_epik_State_Penalty>
 -0.0000

> <r_epik_Charging_Adjusted_Penalty>
0.0280727403770466

> <i_epik_Tot_Q>
2

> <i_epik_Tot_abs_Q>
2

> <s_epik_Chemistry_Notes>
This compound has an ester and may undergo hydrolysis at high or low pH. This compound has an imine and may undergo hydrolysis.

> <s_lp_Force_Field>
OPLS3e

> <r_lp_Energy>
32.721207

> <b_lp_Chiralities_Consistent>
1

> <s_lp_Variant>
sdf/actives_sanitized.sdf:113-1

$$$$
sdf/actives_sanitized.sdf:114
                    3D
 Schrodinger Suite 2020-1.
 64 68  0  0  1  0            999 V2000
   -5.2396    1.8117   -0.9556 C   0  0  0  0  0  0
   -4.1277    0.9817   -1.6289 C   0  0  2  0  0  0
   -2.7364    1.6708   -1.5098 C   0  0  0  0  0  0
   -2.0928    1.6143   -0.0988 C   0  0  0  0  0  0
   -0.5434    1.5059   -0.0979 C   0  0  0  0  0  0
    0.0414    0.0586   -0.1901 C   0  0  2  0  0  0
    1.5226    0.0123   -0.0968 N   0  0  0  0  0  0
    2.3385    1.0456   -0.8028 C   0  0  0  0  0  0
    3.7636    0.5518   -1.1732 C   0  0  0  0  0  0
    4.3669   -0.1626    0.0231 C   0  0  0  0  0  0
    3.5437   -0.9088    0.7859 C   0  0  0  0  0  0
    2.1107   -1.0070    0.6116 C   0  0  0  0  0  0
    1.4967   -1.9664    1.0820 O   0  0  0  0  0  0
    5.8372   -0.2885    0.1751 C   0  0  0  0  0  0
    6.4455   -0.0281    1.4152 C   0  0  0  0  0  0
    5.7035    0.3507    2.4830 F   0  0  0  0  0  0
    7.8271   -0.1414    1.5667 C   0  0  0  0  0  0
    8.6219   -0.5150    0.4866 C   0  0  0  0  0  0
    8.0364   -0.7752   -0.7508 C   0  0  0  0  0  0
    9.0363   -1.2415   -2.0808 Cl  0  0  0  0  0  0
    6.6514   -0.6622   -0.9089 C   0  0  0  0  0  0
    6.1028   -0.9355   -2.1172 F   0  0  0  0  0  0
   -0.5187   -0.7191   -1.3851 C   0  0  0  0  0  0
   -1.7224   -1.4125   -1.2454 C   0  0  0  0  0  0
   -2.3714   -1.8885   -2.3873 C   0  0  0  0  0  0
   -1.7232   -1.7735   -3.6231 C   0  0  0  0  0  0
   -0.4719   -1.1552   -3.6717 C   0  0  0  0  0  0
    0.1255   -0.6128   -2.5801 N   0  0  0  0  0  0
   -3.7549   -2.4118   -2.2715 C   0  0  0  0  0  0
   -3.9729   -3.5938   -1.5540 C   0  0  0  0  0  0
   -5.2562   -4.1139   -1.3977 C   0  0  0  0  0  0
   -6.3509   -3.4538   -1.9574 C   0  0  0  0  0  0
   -6.1541   -2.2688   -2.6697 C   0  0  0  0  0  0
   -4.8696   -1.7349   -2.8163 C   0  0  0  0  0  0
   -4.7613   -0.5500   -3.5624 N   0  0  0  0  0  0
   -4.4737    0.6937   -3.1143 C   0  0  0  0  0  0
   -4.4858    1.6341   -3.9076 O   0  0  0  0  0  0
   -7.6914   -3.9975   -1.7965 C   0  0  0  0  0  0
   -8.7570   -4.4299   -1.6681 N   0  0  0  0  0  0
   -6.2065    1.3100   -1.0208 H   0  0  0  0  0  0
   -5.3487    2.7943   -1.4177 H   0  0  0  0  0  0
   -5.0289    1.9662    0.1031 H   0  0  0  0  0  0
   -4.0819    0.0380   -1.0902 H   0  0  0  0  0  0
   -2.0540    1.2227   -2.2311 H   0  0  0  0  0  0
   -2.8045    2.7115   -1.8319 H   0  0  0  0  0  0
   -2.3867    2.5158    0.4410 H   0  0  0  0  0  0
   -2.5064    0.7925    0.4867 H   0  0  0  0  0  0
   -0.1469    2.1443   -0.8877 H   0  0  0  0  0  0
   -0.1842    1.9438    0.8347 H   0  0  0  0  0  0
   -0.3485   -0.4460    0.6965 H   0  0  0  0  0  0
    1.8024    1.4953   -1.6383 H   0  0  0  0  0  0
    2.4671    1.8539   -0.0816 H   0  0  0  0  0  0
    3.6654   -0.1501   -2.0026 H   0  0  0  0  0  0
    4.3892    1.3795   -1.5089 H   0  0  0  0  0  0
    3.9701   -1.5149    1.5732 H   0  0  0  0  0  0
    8.2840    0.0640    2.5235 H   0  0  0  0  0  0
    9.6915   -0.6019    0.6118 H   0  0  0  0  0  0
   -2.2119   -1.4647   -0.2832 H   0  0  0  0  0  0
   -2.1882   -2.1363   -4.5283 H   0  0  0  0  0  0
    0.0537   -1.0499   -4.6093 H   0  0  0  0  0  0
   -3.1374   -4.1194   -1.1138 H   0  0  0  0  0  0
   -5.3876   -5.0312   -0.8405 H   0  0  0  0  0  0
   -6.9997   -1.7531   -3.1062 H   0  0  0  0  0  0
   -5.0417   -0.6248   -4.5294 H   0  0  0  0  0  0
  1  2  1  0  0  0
  1 40  1  0  0  0
  1 41  1  0  0  0
  1 42  1  0  0  0
  2  3  1  0  0  0
  2 36  1  0  0  0
  2 43  1  0  0  0
  3  4  1  0  0  0
  3 44  1  0  0  0
  3 45  1  0  0  0
  4  5  1  0  0  0
  4 46  1  0  0  0
  4 47  1  0  0  0
  5  6  1  0  0  0
  5 48  1  0  0  0
  5 49  1  0  0  0
  6  7  1  0  0  0
  6 23  1  0  0  0
  6 50  1  0  0  0
  7  8  1  0  0  0
  7 12  1  0  0  0
  8  9  1  0  0  0
  8 51  1  0  0  0
  8 52  1  0  0  0
  9 10  1  0  0  0
  9 53  1  0  0  0
  9 54  1  0  0  0
 10 11  2  0  0  0
 10 14  1  0  0  0
 11 12  1  0  0  0
 11 55  1  0  0  0
 12 13  2  0  0  0
 14 15  2  0  0  0
 14 21  1  0  0  0
 15 16  1  0  0  0
 15 17  1  0  0  0
 17 18  2  0  0  0
 17 56  1  0  0  0
 18 19  1  0  0  0
 18 57  1  0  0  0
 19 20  1  0  0  0
 19 21  2  0  0  0
 21 22  1  0  0  0
 23 24  1  0  0  0
 23 28  2  0  0  0
 24 25  2  0  0  0
 24 58  1  0  0  0
 25 26  1  0  0  0
 25 29  1  0  0  0
 26 27  2  0  0  0
 26 59  1  0  0  0
 27 28  1  0  0  0
 27 60  1  0  0  0
 29 30  2  0  0  0
 29 34  1  0  0  0
 30 31  1  0  0  0
 30 61  1  0  0  0
 31 32  2  0  0  0
 31 62  1  0  0  0
 32 33  1  0  0  0
 32 38  1  0  0  0
 33 34  2  0  0  0
 33 63  1  0  0  0
 34 35  1  0  0  0
 35 36  1  0  0  0
 35 64  1  0  0  0
 36 37  2  0  0  0
 38 39  3  0  0  0
M  END
> <chembl_id>
CHEMBL3952811

> <chembl_pref_name>
None

> <i_m_ct_stereo_status>
1

> <s_m_source_file>
sdf/actives_sanitized.sdf

> <i_m_source_file_index>
114

> <i_lp_mmshare_version>
49012

> <i_f3d_flags>
0

> <s_epik_input>
bjFbY0hdW2NIXWMoW2NIXWMxMiljM2MoW2NIXWMoQyNOKVtjSF1bY0hdMylbTkhdQyg9TylbQ0BIXShbQ0gzXSlbQ0gyXVtDSDJdW0NIMl1bQ0BASF0yTjRbQ0gyXVtDSDJdQyg9W0NIXUM0PU8pYzVjKEYpW2NIXVtjSF1jKENsKWM1Rg==

> <s_epik_cmdline>
J2VwaWtfcHl0aG9uJywgJy1waHQnLCAnMC41JywgJy1waCcsICc3LjUnLCAnLW50JywgJy1tYScsICcyMDAnLCAnLWltYWUnLCAnPGluZmlsZS5tYWU+JywgJy1vbWFlJywgJzxvdXRmaWxlLm1hZT4n

> <r_lp_tautomer_probability>
1

> <r_epik_Ionization_Penalty>
  0.0001

> <r_epik_Ionization_Penalty_Charging>
  0.0000

> <r_epik_Ionization_Penalty_Neutral>
  0.0001

> <r_epik_State_Penalty>
 -0.0000

> <r_epik_Charging_Adjusted_Penalty>
0

> <i_epik_Tot_Q>
0

> <i_epik_Tot_abs_Q>
0

> <s_lp_Force_Field>
OPLS3e

> <r_lp_Energy>
95.163445

> <b_lp_Chiralities_Consistent>
1

> <s_lp_Variant>
sdf/actives_sanitized.sdf:114-1

$$$$
sdf/actives_sanitized.sdf:115
                    3D
 Schrodinger Suite 2020-1.
 86 91  0  0  1  0            999 V2000
    1.9150    4.3660   -2.7302 C   0  0  0  0  0  0
    0.6516    5.1940   -2.4057 C   0  0  2  0  0  0
    0.4906    6.3623   -3.4421 C   0  0  0  0  0  0
   -0.9118    7.0114   -3.6212 C   0  0  0  0  0  0
   -1.3392    8.0529   -2.5499 C   0  0  0  0  0  0
   -2.8749    8.1046   -2.2209 C   0  0  2  0  0  0
   -3.3843    9.4874   -2.0267 N   0  0  0  0  0  0
   -4.6393    9.8437   -2.7444 C   0  0  0  0  0  0
   -4.7986   11.3752   -2.9362 C   0  0  0  0  0  0
   -4.5153   12.0719   -1.6178 C   0  0  0  0  0  0
   -3.5858   11.5398   -0.7998 C   0  0  0  0  0  0
   -2.8859   10.2932   -1.0277 C   0  0  0  0  0  0
   -1.8810   10.0272   -0.3670 O   0  0  0  0  0  0
   -5.0215   13.4435   -1.3917 C   0  0  0  0  0  0
   -4.1450   14.5385   -1.3077 C   0  0  0  0  0  0
   -2.8084   14.3664   -1.4397 F   0  0  0  0  0  0
   -4.6398   15.8256   -1.0988 C   0  0  0  0  0  0
   -6.0106   16.0373   -0.9739 C   0  0  0  0  0  0
   -6.8928   14.9612   -1.0581 C   0  0  0  0  0  0
   -8.5907   15.2406   -0.8996 Cl  0  0  0  0  0  0
   -6.4017   13.6686   -1.2669 C   0  0  0  0  0  0
   -7.2694   12.6296   -1.3376 F   0  0  0  0  0  0
   -3.2910    7.0906   -1.1271 C   0  0  0  0  0  0
   -2.6619    5.8505   -1.0696 C   0  0  0  0  0  0
   -2.8655    4.9879    0.0009 C   0  0  0  0  0  0
   -3.8210    5.3468    0.9583 C   0  0  0  0  0  0
   -4.4829    6.5722    0.8159 C   0  0  0  0  0  0
   -4.2231    7.4444   -0.1963 N   0  0  0  0  0  0
   -2.0358    3.7544    0.0723 C   0  0  0  0  0  0
   -2.6588    2.5039    0.1412 C   0  0  0  0  0  0
   -1.9096    1.3283    0.1168 C   0  0  0  0  0  0
   -0.5170    1.3734    0.0359 C   0  0  0  0  0  0
    0.1822    0.1557    0.0044 N   0  0  0  0  0  0
    1.6028    0.0419   -0.2158 C   0  0  2  0  0  0
    2.0442    0.4293   -1.4955 O   0  0  0  0  0  0
    1.5626   -0.3781   -2.5818 C   0  0  1  0  0  0
    2.0518    0.2959   -3.8834 C   0  0  0  0  0  0
    1.3561   -0.1739   -5.0208 O   0  0  0  0  0  0
    2.0352   -1.8474   -2.4072 C   0  0  2  0  0  0
    1.5258   -2.6985   -3.4196 O   0  0  0  0  0  0
    1.6722   -2.3791   -1.0018 C   0  0  1  0  0  0
    2.2159   -3.6700   -0.7747 O   0  0  0  0  0  0
    2.1137   -1.3806    0.0953 C   0  0  2  0  0  0
    1.7795   -1.8150    1.4040 O   0  0  0  0  0  0
    0.1205    2.6192   -0.0093 C   0  0  0  0  0  0
   -0.6245    3.8024    0.0010 C   0  0  0  0  0  0
    0.0709    5.0230    0.0668 N   0  0  0  0  0  0
    0.7172    5.6718   -0.9293 C   0  0  0  0  0  0
    1.3781    6.6738   -0.6593 O   0  0  0  0  0  0
    2.0272    3.5123   -2.0614 H   0  0  0  0  0  0
    2.8233    4.9653   -2.6486 H   0  0  0  0  0  0
    1.8751    3.9661   -3.7440 H   0  0  0  0  0  0
   -0.1920    4.5162   -2.5345 H   0  0  0  0  0  0
    1.2350    7.1408   -3.2652 H   0  0  0  0  0  0
    0.7508    5.9616   -4.4234 H   0  0  0  0  0  0
   -0.9199    7.5267   -4.5829 H   0  0  0  0  0  0
   -1.6587    6.2300   -3.7533 H   0  0  0  0  0  0
   -0.7885    7.8973   -1.6241 H   0  0  0  0  0  0
   -0.9988    9.0300   -2.8977 H   0  0  0  0  0  0
   -3.3721    7.7327   -3.1174 H   0  0  0  0  0  0
   -4.8102    9.2414   -3.6371 H   0  0  0  0  0  0
   -5.4428    9.5702   -2.0580 H   0  0  0  0  0  0
   -4.0736   11.7114   -3.6789 H   0  0  0  0  0  0
   -5.7884   11.6213   -3.3215 H   0  0  0  0  0  0
   -3.3077   12.0867    0.0906 H   0  0  0  0  0  0
   -3.9591   16.6621   -1.0362 H   0  0  0  0  0  0
   -6.3862   17.0372   -0.8126 H   0  0  0  0  0  0
   -1.9595    5.5548   -1.8192 H   0  0  0  0  0  0
   -4.0307    4.7047    1.8014 H   0  0  0  0  0  0
   -5.2216    6.8841    1.5393 H   0  0  0  0  0  0
   -3.7364    2.4379    0.1870 H   0  0  0  0  0  0
   -2.4228    0.3780    0.1571 H   0  0  0  0  0  0
   -0.3634   -0.6329   -0.3116 H   0  0  0  0  0  0
    2.0905    0.7742    0.4285 H   0  0  0  0  0  0
    0.4706   -0.3414   -2.5768 H   0  0  0  0  0  0
    1.8847    1.3723   -3.8314 H   0  0  0  0  0  0
    3.1240    0.1531   -4.0216 H   0  0  0  0  0  0
    1.6995    0.2752   -5.7968 H   0  0  0  0  0  0
    3.1211   -1.8708   -2.5168 H   0  0  0  0  0  0
    0.5717   -2.7498   -3.3268 H   0  0  0  0  0  0
    0.5892   -2.5032   -0.9404 H   0  0  0  0  0  0
    3.1719   -3.6168   -0.8460 H   0  0  0  0  0  0
    3.2036   -1.3191    0.0870 H   0  0  0  0  0  0
    1.8471   -2.7727    1.4316 H   0  0  0  0  0  0
    1.1977    2.6829   -0.0413 H   0  0  0  0  0  0
    0.0746    5.4659    0.9741 H   0  0  0  0  0  0
  1  2  1  0  0  0
  1 50  1  0  0  0
  1 51  1  0  0  0
  1 52  1  0  0  0
  2  3  1  0  0  0
  2 48  1  0  0  0
  2 53  1  0  0  0
  3  4  1  0  0  0
  3 54  1  0  0  0
  3 55  1  0  0  0
  4  5  1  0  0  0
  4 56  1  0  0  0
  4 57  1  0  0  0
  5  6  1  0  0  0
  5 58  1  0  0  0
  5 59  1  0  0  0
  6  7  1  0  0  0
  6 23  1  0  0  0
  6 60  1  0  0  0
  7  8  1  0  0  0
  7 12  1  0  0  0
  8  9  1  0  0  0
  8 61  1  0  0  0
  8 62  1  0  0  0
  9 10  1  0  0  0
  9 63  1  0  0  0
  9 64  1  0  0  0
 10 11  2  0  0  0
 10 14  1  0  0  0
 11 12  1  0  0  0
 11 65  1  0  0  0
 12 13  2  0  0  0
 14 15  2  0  0  0
 14 21  1  0  0  0
 15 16  1  0  0  0
 15 17  1  0  0  0
 17 18  2  0  0  0
 17 66  1  0  0  0
 18 19  1  0  0  0
 18 67  1  0  0  0
 19 20  1  0  0  0
 19 21  2  0  0  0
 21 22  1  0  0  0
 23 24  1  0  0  0
 23 28  2  0  0  0
 24 25  2  0  0  0
 24 68  1  0  0  0
 25 26  1  0  0  0
 25 29  1  0  0  0
 26 27  2  0  0  0
 26 69  1  0  0  0
 27 28  1  0  0  0
 27 70  1  0  0  0
 29 30  2  0  0  0
 29 46  1  0  0  0
 30 31  1  0  0  0
 30 71  1  0  0  0
 31 32  2  0  0  0
 31 72  1  0  0  0
 32 33  1  0  0  0
 32 45  1  0  0  0
 33 34  1  0  0  0
 33 73  1  0  0  0
 34 35  1  0  0  0
 34 43  1  0  0  0
 34 74  1  0  0  0
 35 36  1  0  0  0
 36 37  1  0  0  0
 36 39  1  0  0  0
 36 75  1  0  0  0
 37 38  1  0  0  0
 37 76  1  0  0  0
 37 77  1  0  0  0
 38 78  1  0  0  0
 39 40  1  0  0  0
 39 41  1  0  0  0
 39 79  1  0  0  0
 40 80  1  0  0  0
 41 42  1  0  0  0
 41 43  1  0  0  0
 41 81  1  0  0  0
 42 82  1  0  0  0
 43 44  1  0  0  0
 43 83  1  0  0  0
 44 84  1  0  0  0
 45 46  2  0  0  0
 45 85  1  0  0  0
 46 47  1  0  0  0
 47 48  1  0  0  0
 47 86  1  0  0  0
 48 49  2  0  0  0
M  END
> <chembl_id>
CHEMBL4108292

> <chembl_pref_name>
None

> <i_m_ct_stereo_status>
1

> <s_m_source_file>
sdf/actives_sanitized.sdf

> <i_m_source_file_index>
115

> <i_lp_mmshare_version>
49012

> <i_f3d_flags>
0

> <s_epik_input>
W09IXVtDQEhdMVtDQEhdKFtPSF0pW0NAQEhdKFtPSF0pW0NASF0oW0NIMl1bT0hdKU9bQ0BIXTFbTkhdYyhbY0hdW2NIXTIpW2NIXWMoYzJjKFtjSF1jMzQpW2NIXVtjSF1uNClbTkhdQyg9TylbQ0BIXShbQ0gzXSlbQ0gyXVtDSDJdW0NIMl1bQ0BASF0zTjVbQ0gyXVtDSDJdQyg9W0NIXUM1PU8pYzZjKEYpW2NIXVtjSF1jKENsKWM2Rg==

> <s_epik_cmdline>
J2VwaWtfcHl0aG9uJywgJy1waHQnLCAnMC41JywgJy1waCcsICc3LjUnLCAnLW50JywgJy1tYScsICcyMDAnLCAnLWltYWUnLCAnPGluZmlsZS5tYWU+JywgJy1vbWFlJywgJzxvdXRmaWxlLm1hZT4n

> <r_lp_tautomer_probability>
1

> <r_epik_Ionization_Penalty>
  0.0001

> <r_epik_Ionization_Penalty_Charging>
  0.0000

> <r_epik_Ionization_Penalty_Neutral>
  0.0001

> <r_epik_State_Penalty>
 -0.0000

> <r_epik_Charging_Adjusted_Penalty>
0

> <i_epik_Tot_Q>
0

> <i_epik_Tot_abs_Q>
0

> <s_epik_Chemistry_Notes>
This compound contains an acetal/aminal-like group ( X-CH(R)-Y where X, Y are N, S, or O) that may be acid/base labile, releasing an aldehyde.

> <s_lp_Force_Field>
OPLS3e

> <r_lp_Energy>
107.87059

> <b_lp_Chiralities_Consistent>
1

> <s_lp_Variant>
sdf/actives_sanitized.sdf:115-1

$$$$
sdf/actives_sanitized.sdf:116
                    3D
 Schrodinger Suite 2020-1.
 67 72  0  0  1  0            999 V2000
   -5.0270    3.1167   -0.9009 C   0  0  0  0  0  0
   -3.7937    2.1861   -0.9052 C   0  0  2  0  0  0
   -2.8445    2.5515    0.2896 C   0  0  0  0  0  0
   -1.8270    1.4846    0.7810 C   0  0  0  0  0  0
   -0.5239    1.3298   -0.0506 C   0  0  0  0  0  0
    0.0652   -0.1214   -0.1136 C   0  0  2  0  0  0
    1.5480   -0.1121   -0.0656 N   0  0  0  0  0  0
    2.2834    0.7469   -1.0392 C   0  0  0  0  0  0
    3.7180    0.2285   -1.3271 C   0  0  0  0  0  0
    4.3964   -0.1001   -0.0068 C   0  0  0  0  0  0
    3.6354   -0.6385    0.9684 C   0  0  0  0  0  0
    2.2040   -0.8412    0.8945 C   0  0  0  0  0  0
    1.6536   -1.6408    1.6532 O   0  0  0  0  0  0
    5.8776   -0.1039    0.1132 C   0  0  0  0  0  0
    6.4998    0.4547    1.2442 C   0  0  0  0  0  0
    5.7640    1.0149    2.2337 F   0  0  0  0  0  0
    7.8891    0.4598    1.3633 C   0  0  0  0  0  0
    8.6802   -0.0865    0.3572 C   0  0  0  0  0  0
    8.0832   -0.6410   -0.7729 C   0  0  0  0  0  0
    9.0801   -1.3164   -2.0125 Cl  0  0  0  0  0  0
    6.6900   -0.6515   -0.8967 C   0  0  0  0  0  0
    6.1347   -1.2141   -1.9969 F   0  0  0  0  0  0
   -0.5154   -0.9341   -1.2936 C   0  0  0  0  0  0
   -1.8690   -0.8221   -1.5991 C   0  0  0  0  0  0
   -2.3882   -1.3799   -2.7618 C   0  0  0  0  0  0
   -1.5428   -2.1697   -3.5486 C   0  0  0  0  0  0
   -0.2064   -2.3104   -3.1583 C   0  0  0  0  0  0
    0.3162   -1.6939   -2.0635 N   0  0  0  0  0  0
   -3.7981   -1.0689   -3.1153 C   0  0  0  0  0  0
   -4.7214   -2.1103   -3.2591 C   0  0  0  0  0  0
   -6.0803   -1.8638   -3.5092 C   0  0  0  0  0  0
   -6.5022   -0.5314   -3.6230 C   0  0  0  0  0  0
   -5.5974    0.5207   -3.5030 C   0  0  0  0  0  0
   -4.2491    0.2629   -3.2463 C   0  0  0  0  0  0
   -3.3443    1.3399   -3.2634 N   0  0  0  0  0  0
   -3.1094    2.2571   -2.2968 C   0  0  0  0  0  0
   -2.3324    3.1826   -2.5290 O   0  0  0  0  0  0
   -7.0614   -3.0010   -3.6482 C   0  0  0  0  0  0
   -8.3631   -2.8515   -3.5181 N   0  0  0  0  0  0
   -8.9009   -4.1019   -3.7118 N   0  0  0  0  0  0
   -7.8662   -4.9648   -3.9565 N   0  5  0  0  0  0
   -6.6993   -4.2393   -3.9111 N   0  0  0  0  0  0
   -5.7323    2.8636   -1.6928 H   0  0  0  0  0  0
   -4.7452    4.1621   -1.0380 H   0  0  0  0  0  0
   -5.5731    3.0448    0.0405 H   0  0  0  0  0  0
   -4.1723    1.1784   -0.7354 H   0  0  0  0  0  0
   -2.3270    3.4935    0.0993 H   0  0  0  0  0  0
   -3.4784    2.7642    1.1523 H   0  0  0  0  0  0
   -1.5243    1.7553    1.7940 H   0  0  0  0  0  0
   -2.3392    0.5341    0.9232 H   0  0  0  0  0  0
   -0.6653    1.6975   -1.0656 H   0  0  0  0  0  0
    0.2086    2.0156    0.3784 H   0  0  0  0  0  0
   -0.3160   -0.6367    0.7694 H   0  0  0  0  0  0
    1.6897    0.9610   -1.9286 H   0  0  0  0  0  0
    2.4109    1.7095   -0.5415 H   0  0  0  0  0  0
    3.6296   -0.6781   -1.9276 H   0  0  0  0  0  0
    4.2875    0.9583   -1.9037 H   0  0  0  0  0  0
    4.1150   -0.9811    1.8744 H   0  0  0  0  0  0
    8.3547    0.8931    2.2363 H   0  0  0  0  0  0
    9.7558   -0.0774    0.4563 H   0  0  0  0  0  0
   -2.5298   -0.2495   -0.9813 H   0  0  0  0  0  0
   -1.9042   -2.6410   -4.4511 H   0  0  0  0  0  0
    0.4777   -2.9047   -3.7457 H   0  0  0  0  0  0
   -4.3757   -3.1285   -3.1480 H   0  0  0  0  0  0
   -7.5381   -0.3014   -3.8250 H   0  0  0  0  0  0
   -5.9474    1.5342   -3.6349 H   0  0  0  0  0  0
   -2.7892    1.4162   -4.1034 H   0  0  0  0  0  0
  1  2  1  0  0  0
  1 43  1  0  0  0
  1 44  1  0  0  0
  1 45  1  0  0  0
  2  3  1  0  0  0
  2 36  1  0  0  0
  2 46  1  0  0  0
  3  4  1  0  0  0
  3 47  1  0  0  0
  3 48  1  0  0  0
  4  5  1  0  0  0
  4 49  1  0  0  0
  4 50  1  0  0  0
  5  6  1  0  0  0
  5 51  1  0  0  0
  5 52  1  0  0  0
  6  7  1  0  0  0
  6 23  1  0  0  0
  6 53  1  0  0  0
  7  8  1  0  0  0
  7 12  1  0  0  0
  8  9  1  0  0  0
  8 54  1  0  0  0
  8 55  1  0  0  0
  9 10  1  0  0  0
  9 56  1  0  0  0
  9 57  1  0  0  0
 10 11  2  0  0  0
 10 14  1  0  0  0
 11 12  1  0  0  0
 11 58  1  0  0  0
 12 13  2  0  0  0
 14 15  2  0  0  0
 14 21  1  0  0  0
 15 16  1  0  0  0
 15 17  1  0  0  0
 17 18  2  0  0  0
 17 59  1  0  0  0
 18 19  1  0  0  0
 18 60  1  0  0  0
 19 20  1  0  0  0
 19 21  2  0  0  0
 21 22  1  0  0  0
 23 24  1  0  0  0
 23 28  2  0  0  0
 24 25  2  0  0  0
 24 61  1  0  0  0
 25 26  1  0  0  0
 25 29  1  0  0  0
 26 27  2  0  0  0
 26 62  1  0  0  0
 27 28  1  0  0  0
 27 63  1  0  0  0
 29 30  2  0  0  0
 29 34  1  0  0  0
 30 31  1  0  0  0
 30 64  1  0  0  0
 31 32  2  0  0  0
 31 38  1  0  0  0
 32 33  1  0  0  0
 32 65  1  0  0  0
 33 34  2  0  0  0
 33 66  1  0  0  0
 34 35  1  0  0  0
 35 36  1  0  0  0
 35 67  1  0  0  0
 36 37  2  0  0  0
 38 39  1  0  0  0
 38 42  2  0  0  0
 39 40  2  0  0  0
 40 41  1  0  0  0
 41 42  1  0  0  0
M  CHG  1  41  -1
M  END
> <chembl_id>
CHEMBL4111619

> <chembl_pref_name>
None

> <i_m_ct_stereo_status>
1

> <s_m_source_file>
sdf/actives_sanitized.sdf

> <i_m_source_file_index>
116

> <i_lp_mmshare_version>
49012

> <i_f3d_flags>
0

> <s_epik_input>
bjFbbkhdbm5jMS1jKFtjSF0yKVtjSF1bY0hdYyhjMmMoW2NIXWMzNClbY0hdW2NIXW40KVtOSF1DKD1PKVtDQEhdKFtDSDNdKVtDSDJdW0NIMl1bQ0gyXVtDQEBIXTNONVtDSDJdW0NIMl1DKD1bQ0hdQzU9TyljNmMoRilbY0hdW2NIXWMoQ2wpYzZG

> <s_epik_cmdline>
J2VwaWtfcHl0aG9uJywgJy1waHQnLCAnMC41JywgJy1waCcsICc3LjUnLCAnLW50JywgJy1tYScsICcyMDAnLCAnLWltYWUnLCAnPGluZmlsZS5tYWU+JywgJy1vbWFlJywgJzxvdXRmaWxlLm1hZT4n

> <r_lp_tautomer_probability>
1

> <r_epik_Ionization_Penalty>
  0.0004

> <r_epik_Ionization_Penalty_Charging>
  0.0003

> <r_epik_Ionization_Penalty_Neutral>
  0.0001

> <r_epik_State_Penalty>
 -0.0000

> <r_epik_Charging_Adjusted_Penalty>
0.000282453827014536

> <i_epik_Tot_Q>
-1

> <i_epik_Tot_abs_Q>
1

> <s_lp_Force_Field>
OPLS3e

> <r_lp_Energy>
99.889272

> <b_lp_Chiralities_Consistent>
1

> <s_lp_Variant>
sdf/actives_sanitized.sdf:116-1

$$$$
sdf/actives_sanitized.sdf:117
                    3D
 Schrodinger Suite 2020-1.
 64 68  0  0  1  0            999 V2000
   -5.0697    3.0846   -0.7400 C   0  0  0  0  0  0
   -3.8238    2.1740   -0.8089 C   0  0  2  0  0  0
   -2.8956    2.4455    0.4263 C   0  0  0  0  0  0
   -1.8704    1.3521    0.8354 C   0  0  0  0  0  0
   -0.5571    1.2838    0.0091 C   0  0  0  0  0  0
    0.0441   -0.1508   -0.1788 C   0  0  2  0  0  0
    1.5262   -0.1363   -0.1073 N   0  0  0  0  0  0
    2.2683    0.8176   -0.9838 C   0  0  0  0  0  0
    3.7067    0.3356   -1.3124 C   0  0  0  0  0  0
    4.3654   -0.1428   -0.0322 C   0  0  0  0  0  0
    3.6047   -0.7594    0.8918 C   0  0  0  0  0  0
    2.1735   -0.9491    0.7902 C   0  0  0  0  0  0
    1.6170   -1.8148    1.4675 O   0  0  0  0  0  0
    5.8421   -0.1713    0.0861 C   0  0  0  0  0  0
    6.4617    0.7851    0.9072 C   0  0  0  0  0  0
    5.7100    1.6894    1.5819 F   0  0  0  0  0  0
    7.8525    0.8193    1.0361 C   0  0  0  0  0  0
    8.6127    1.9974    2.0461 Cl  0  0  0  0  0  0
    8.6382   -0.0992    0.3451 C   0  0  0  0  0  0
    8.0399   -1.0510   -0.4758 C   0  0  0  0  0  0
    6.6488   -1.0953   -0.6156 C   0  0  0  0  0  0
    6.0851   -2.1251   -1.4862 C   0  0  0  0  0  0
    5.6381   -2.9398   -2.1755 N   0  0  0  0  0  0
   -0.5119   -0.8492   -1.4410 C   0  0  0  0  0  0
   -1.8685   -0.7458   -1.7382 C   0  0  0  0  0  0
   -2.3662   -1.1827   -2.9613 C   0  0  0  0  0  0
   -1.4934   -1.8488   -3.8287 C   0  0  0  0  0  0
   -0.1552   -1.9946   -3.4480 C   0  0  0  0  0  0
    0.3443   -1.4917   -2.2869 N   0  0  0  0  0  0
   -3.7815   -0.8665   -3.2948 C   0  0  0  0  0  0
   -4.7015   -1.8989   -3.5330 C   0  0  0  0  0  0
   -4.3031   -3.1926   -3.5099 F   0  0  0  0  0  0
   -6.0447   -1.6114   -3.7751 C   0  0  0  0  0  0
   -6.4887   -0.2916   -3.7889 C   0  0  0  0  0  0
   -7.7909   -0.0187   -4.0293 F   0  0  0  0  0  0
   -5.5889    0.7482   -3.5697 C   0  0  0  0  0  0
   -4.2414    0.4714   -3.3180 C   0  0  0  0  0  0
   -3.3434    1.5499   -3.2289 N   0  0  0  0  0  0
   -3.1229    2.3745   -2.1795 C   0  0  0  0  0  0
   -2.3471    3.3194   -2.3167 O   0  0  0  0  0  0
   -5.7579    2.8998   -1.5652 H   0  0  0  0  0  0
   -4.8001    4.1416   -0.7719 H   0  0  0  0  0  0
   -5.6308    2.9163    0.1799 H   0  0  0  0  0  0
   -4.1901    1.1504   -0.7331 H   0  0  0  0  0  0
   -2.3894    3.4073    0.3275 H   0  0  0  0  0  0
   -3.5434    2.5728    1.2954 H   0  0  0  0  0  0
   -1.5812    1.5384    1.8711 H   0  0  0  0  0  0
   -2.3727    0.3876    0.8899 H   0  0  0  0  0  0
   -0.6877    1.7426   -0.9695 H   0  0  0  0  0  0
    0.1644    1.9321    0.5093 H   0  0  0  0  0  0
   -0.3460   -0.7490    0.6462 H   0  0  0  0  0  0
    1.6822    1.1232   -1.8513 H   0  0  0  0  0  0
    2.3908    1.7230   -0.3875 H   0  0  0  0  0  0
    3.6328   -0.4958   -2.0147 H   0  0  0  0  0  0
    4.2857    1.1238   -1.7947 H   0  0  0  0  0  0
    4.0870   -1.1844    1.7612 H   0  0  0  0  0  0
    9.7138   -0.0761    0.4428 H   0  0  0  0  0  0
    8.6721   -1.7538   -1.0011 H   0  0  0  0  0  0
   -2.5473   -0.2647   -1.0635 H   0  0  0  0  0  0
   -1.8359   -2.2210   -4.7834 H   0  0  0  0  0  0
    0.5489   -2.4955   -4.0959 H   0  0  0  0  0  0
   -6.7451   -2.4152   -3.9494 H   0  0  0  0  0  0
   -5.9392    1.7690   -3.6202 H   0  0  0  0  0  0
   -2.7787    1.7047   -4.0515 H   0  0  0  0  0  0
  1  2  1  0  0  0
  1 41  1  0  0  0
  1 42  1  0  0  0
  1 43  1  0  0  0
  2  3  1  0  0  0
  2 39  1  0  0  0
  2 44  1  0  0  0
  3  4  1  0  0  0
  3 45  1  0  0  0
  3 46  1  0  0  0
  4  5  1  0  0  0
  4 47  1  0  0  0
  4 48  1  0  0  0
  5  6  1  0  0  0
  5 49  1  0  0  0
  5 50  1  0  0  0
  6  7  1  0  0  0
  6 24  1  0  0  0
  6 51  1  0  0  0
  7  8  1  0  0  0
  7 12  1  0  0  0
  8  9  1  0  0  0
  8 52  1  0  0  0
  8 53  1  0  0  0
  9 10  1  0  0  0
  9 54  1  0  0  0
  9 55  1  0  0  0
 10 11  2  0  0  0
 10 14  1  0  0  0
 11 12  1  0  0  0
 11 56  1  0  0  0
 12 13  2  0  0  0
 14 15  2  0  0  0
 14 21  1  0  0  0
 15 16  1  0  0  0
 15 17  1  0  0  0
 17 18  1  0  0  0
 17 19  2  0  0  0
 19 20  1  0  0  0
 19 57  1  0  0  0
 20 21  2  0  0  0
 20 58  1  0  0  0
 21 22  1  0  0  0
 22 23  3  0  0  0
 24 25  1  0  0  0
 24 29  2  0  0  0
 25 26  2  0  0  0
 25 59  1  0  0  0
 26 27  1  0  0  0
 26 30  1  0  0  0
 27 28  2  0  0  0
 27 60  1  0  0  0
 28 29  1  0  0  0
 28 61  1  0  0  0
 30 31  2  0  0  0
 30 37  1  0  0  0
 31 32  1  0  0  0
 31 33  1  0  0  0
 33 34  2  0  0  0
 33 62  1  0  0  0
 34 35  1  0  0  0
 34 36  1  0  0  0
 36 37  2  0  0  0
 36 63  1  0  0  0
 37 38  1  0  0  0
 38 39  1  0  0  0
 38 64  1  0  0  0
 39 40  2  0  0  0
M  END
> <chembl_id>
CHEMBL4113815

> <chembl_pref_name>
None

> <i_m_ct_stereo_status>
1

> <s_m_source_file>
sdf/actives_sanitized.sdf

> <i_m_source_file_index>
117

> <i_lp_mmshare_version>
49012

> <i_f3d_flags>
0

> <s_epik_input>
bjFbY0hdW2NIXWMoW2NIXWMxMiljM2MoW2NIXWMoRilbY0hdYzNGKVtOSF1DKD1PKVtDQEhdKFtDSDNdKVtDSDJdW0NIMl1bQ0gyXVtDQEBIXTJONFtDSDJdW0NIMl1DKD1bQ0hdQzQ9TyljNWMoRiljKENsKVtjSF1bY0hdYzVDI04=

> <s_epik_cmdline>
J2VwaWtfcHl0aG9uJywgJy1waHQnLCAnMC41JywgJy1waCcsICc3LjUnLCAnLW50JywgJy1tYScsICcyMDAnLCAnLWltYWUnLCAnPGluZmlsZS5tYWU+JywgJy1vbWFlJywgJzxvdXRmaWxlLm1hZT4n

> <r_lp_tautomer_probability>
1

> <r_epik_Ionization_Penalty>
  0.0001

> <r_epik_Ionization_Penalty_Charging>
  0.0000

> <r_epik_Ionization_Penalty_Neutral>
  0.0001

> <r_epik_State_Penalty>
 -0.0000

> <r_epik_Charging_Adjusted_Penalty>
0

> <i_epik_Tot_Q>
0

> <i_epik_Tot_abs_Q>
0

> <s_lp_Force_Field>
OPLS3e

> <r_lp_Energy>
92.506923

> <b_lp_Chiralities_Consistent>
1

> <s_lp_Variant>
sdf/actives_sanitized.sdf:117-1

$$$$
sdf/actives_sanitized.sdf:118
                    3D
 Schrodinger Suite 2020-1.
 77 82  0  0  1  0            999 V2000
   -3.8351   -1.8243   -2.9563 C   0  0  0  0  0  0
   -2.7657   -1.2293   -2.2372 O   0  0  0  0  0  0
   -2.9760   -1.1932   -0.8323 C   0  0  0  0  0  0
   -1.7714   -0.5667   -0.1706 C   0  0  0  0  0  0
   -0.5525   -1.1265   -0.3708 O   0  0  0  0  0  0
    0.2656   -0.3064    0.3370 C   0  0  0  0  0  0
    1.6095   -0.5843    0.4133 N   0  0  0  0  0  0
    2.3999   -1.3249   -0.4831 C   0  0  0  0  0  0
    3.6662   -1.7274   -0.0539 C   0  0  0  0  0  0
    4.5057   -2.4557   -0.8953 C   0  0  0  0  0  0
    4.1069   -2.7883   -2.1933 C   0  0  0  0  0  0
    2.8254   -2.3845   -2.6319 C   0  0  0  0  0  0
    2.3090   -2.8124   -3.8680 N   0  0  0  0  0  0
    2.1368   -2.0933   -5.0007 C   0  0  0  0  0  0
    1.5668   -2.6155   -5.9578 O   0  0  0  0  0  0
    2.6329   -0.6284   -5.1334 C   0  0  2  0  0  0
    1.4518    0.3320   -4.8698 C   0  0  0  0  0  0
    3.2883   -0.3044   -6.5221 C   0  0  0  0  0  0
    4.7391   -0.7937   -6.7925 C   0  0  0  0  0  0
    4.9092   -2.2872   -7.1857 C   0  0  0  0  0  0
    6.2365   -2.9670   -6.7015 C   0  0  2  0  0  0
    6.7426   -3.9364   -7.7038 N   0  0  0  0  0  0
    5.8173   -5.0054   -8.1786 C   0  0  0  0  0  0
    6.5733   -6.2728   -8.6576 C   0  0  0  0  0  0
    7.7063   -5.8513   -9.5789 C   0  0  0  0  0  0
    8.3596   -4.7082   -9.2838 C   0  0  0  0  0  0
    8.0113   -3.8016   -8.2097 C   0  0  0  0  0  0
    8.8404   -2.9927   -7.7903 O   0  0  0  0  0  0
    8.2649   -6.7954  -10.5809 C   0  0  0  0  0  0
    8.4978   -8.1440  -10.2576 C   0  0  0  0  0  0
    8.2438   -8.6173   -9.0150 F   0  0  0  0  0  0
    9.0144   -9.0235  -11.2088 C   0  0  0  0  0  0
    9.3063   -8.5754  -12.4937 C   0  0  0  0  0  0
    9.0811   -7.2434  -12.8337 C   0  0  0  0  0  0
    9.4450   -6.7027  -14.4342 Cl  0  0  0  0  0  0
    8.5615   -6.3572  -11.8848 C   0  0  0  0  0  0
    8.3305   -5.0702  -12.2420 F   0  0  0  0  0  0
    6.1086   -3.5634   -5.2792 C   0  0  0  0  0  0
    5.3619   -2.8909   -4.3156 C   0  0  0  0  0  0
    5.0555   -3.4896   -3.0987 C   0  0  0  0  0  0
    5.6304   -4.7332   -2.8143 C   0  0  0  0  0  0
    6.4344   -5.3358   -3.7881 C   0  0  0  0  0  0
    6.6622   -4.7812   -5.0095 N   0  0  0  0  0  0
    1.9869   -1.6588   -1.7798 C   0  0  0  0  0  0
   -0.3876    0.6414    0.9608 N   0  0  0  0  0  0
   -1.7267    0.4822    0.6131 N   0  0  0  0  0  0
   -3.6075   -1.8123   -4.0223 H   0  0  0  0  0  0
   -4.7684   -1.2784   -2.8089 H   0  0  0  0  0  0
   -3.9859   -2.8631   -2.6584 H   0  0  0  0  0  0
   -3.8789   -0.6214   -0.6091 H   0  0  0  0  0  0
   -3.1315   -2.2028   -0.4476 H   0  0  0  0  0  0
    2.1075   -0.3325    1.2548 H   0  0  0  0  0  0
    4.0107   -1.4776    0.9397 H   0  0  0  0  0  0
    5.4850   -2.7425   -0.5399 H   0  0  0  0  0  0
    2.0470   -3.7867   -3.9069 H   0  0  0  0  0  0
    3.3711   -0.4211   -4.3591 H   0  0  0  0  0  0
    0.9940    0.1608   -3.8951 H   0  0  0  0  0  0
    0.6675    0.2231   -5.6208 H   0  0  0  0  0  0
    1.7784    1.3724   -4.8847 H   0  0  0  0  0  0
    2.6368   -0.6190   -7.3393 H   0  0  0  0  0  0
    3.3276    0.7823   -6.6147 H   0  0  0  0  0  0
    5.1406   -0.2033   -7.6177 H   0  0  0  0  0  0
    5.3785   -0.5136   -5.9566 H   0  0  0  0  0  0
    4.0644   -2.8800   -6.8392 H   0  0  0  0  0  0
    4.8375   -2.3373   -8.2737 H   0  0  0  0  0  0
    6.9615   -2.1598   -6.5850 H   0  0  0  0  0  0
    5.0108   -5.1980   -7.4699 H   0  0  0  0  0  0
    5.3294   -4.5972   -9.0651 H   0  0  0  0  0  0
    6.9844   -6.7677   -7.7765 H   0  0  0  0  0  0
    5.8930   -6.9708   -9.1467 H   0  0  0  0  0  0
    9.2370   -4.4463   -9.8586 H   0  0  0  0  0  0
    9.1929  -10.0565  -10.9480 H   0  0  0  0  0  0
    9.7065   -9.2635  -13.2242 H   0  0  0  0  0  0
    4.9486   -1.9240   -4.5123 H   0  0  0  0  0  0
    5.4401   -5.2318   -1.8751 H   0  0  0  0  0  0
    6.8869   -6.2996   -3.6072 H   0  0  0  0  0  0
    1.0117   -1.3686   -2.1392 H   0  0  0  0  0  0
  1  2  1  0  0  0
  1 47  1  0  0  0
  1 48  1  0  0  0
  1 49  1  0  0  0
  2  3  1  0  0  0
  3  4  1  0  0  0
  3 50  1  0  0  0
  3 51  1  0  0  0
  4  5  1  0  0  0
  4 46  2  0  0  0
  5  6  1  0  0  0
  6  7  1  0  0  0
  6 45  2  0  0  0
  7  8  1  0  0  0
  7 52  1  0  0  0
  8  9  2  0  0  0
  8 44  1  0  0  0
  9 10  1  0  0  0
  9 53  1  0  0  0
 10 11  2  0  0  0
 10 54  1  0  0  0
 11 12  1  0  0  0
 11 40  1  0  0  0
 12 13  1  0  0  0
 12 44  2  0  0  0
 13 14  1  0  0  0
 13 55  1  0  0  0
 14 15  2  0  0  0
 14 16  1  0  0  0
 16 17  1  0  0  0
 16 18  1  0  0  0
 16 56  1  0  0  0
 17 57  1  0  0  0
 17 58  1  0  0  0
 17 59  1  0  0  0
 18 19  1  0  0  0
 18 60  1  0  0  0
 18 61  1  0  0  0
 19 20  1  0  0  0
 19 62  1  0  0  0
 19 63  1  0  0  0
 20 21  1  0  0  0
 20 64  1  0  0  0
 20 65  1  0  0  0
 21 22  1  0  0  0
 21 38  1  0  0  0
 21 66  1  0  0  0
 22 23  1  0  0  0
 22 27  1  0  0  0
 23 24  1  0  0  0
 23 67  1  0  0  0
 23 68  1  0  0  0
 24 25  1  0  0  0
 24 69  1  0  0  0
 24 70  1  0  0  0
 25 26  2  0  0  0
 25 29  1  0  0  0
 26 27  1  0  0  0
 26 71  1  0  0  0
 27 28  2  0  0  0
 29 30  2  0  0  0
 29 36  1  0  0  0
 30 31  1  0  0  0
 30 32  1  0  0  0
 32 33  2  0  0  0
 32 72  1  0  0  0
 33 34  1  0  0  0
 33 73  1  0  0  0
 34 35  1  0  0  0
 34 36  2  0  0  0
 36 37  1  0  0  0
 38 39  1  0  0  0
 38 43  2  0  0  0
 39 40  2  0  0  0
 39 74  1  0  0  0
 40 41  1  0  0  0
 41 42  2  0  0  0
 41 75  1  0  0  0
 42 43  1  0  0  0
 42 76  1  0  0  0
 44 77  1  0  0  0
 45 46  1  0  0  0
M  END
> <chembl_id>
CHEMBL4115130

> <chembl_pref_name>
None

> <i_m_ct_stereo_status>
1

> <s_m_source_file>
sdf/actives_sanitized.sdf

> <i_m_source_file_index>
118

> <i_lp_mmshare_version>
49012

> <i_f3d_flags>
0

> <s_epik_input>
W0NIM11PW0NIMl1jMW9jKG5uMSlbTkhdYyhbY0hdW2NIXTIpW2NIXWMoYzIzKVtOSF1DKD1PKVtDQEhdKFtDSDNdKVtDSDJdW0NIMl1bQ0gyXVtDQEBIXShjNFtjSF1jM1tjSF1bY0hdbjQpTjVbQ0gyXVtDSDJdQyg9W0NIXUM1PU8pYzZjKEYpW2NIXVtjSF1jKENsKWM2Rg==

> <s_epik_cmdline>
J2VwaWtfcHl0aG9uJywgJy1waHQnLCAnMC41JywgJy1waCcsICc3LjUnLCAnLW50JywgJy1tYScsICcyMDAnLCAnLWltYWUnLCAnPGluZmlsZS5tYWU+JywgJy1vbWFlJywgJzxvdXRmaWxlLm1hZT4n

> <r_lp_tautomer_probability>
1

> <r_epik_Ionization_Penalty>
  0.0001

> <r_epik_Ionization_Penalty_Charging>
  0.0000

> <r_epik_Ionization_Penalty_Neutral>
  0.0001

> <r_epik_State_Penalty>
 -0.0000

> <r_epik_Charging_Adjusted_Penalty>
0

> <i_epik_Tot_Q>
0

> <i_epik_Tot_abs_Q>
0

> <s_lp_Force_Field>
OPLS3e

> <r_lp_Energy>
100.069674

> <b_lp_Chiralities_Consistent>
1

> <s_lp_Variant>
sdf/actives_sanitized.sdf:118-1

$$$$
sdf/actives_sanitized.sdf:119
                    3D
 Schrodinger Suite 2020-1.
 71 75  0  0  1  0            999 V2000
   -5.2308    2.9939   -0.8637 C   0  0  0  0  0  0
   -3.9300    2.1624   -0.9127 C   0  0  2  0  0  0
   -2.9758    2.5879    0.2591 C   0  0  0  0  0  0
   -1.8649    1.5980    0.7106 C   0  0  0  0  0  0
   -0.5806    1.5491   -0.1620 C   0  0  0  0  0  0
    0.1218    0.1473   -0.2582 C   0  0  2  0  0  0
    1.6042    0.2269   -0.1953 N   0  0  0  0  0  0
    2.2827   -0.7232    0.7285 C   0  0  0  0  0  0
    3.6972   -0.2407    1.1441 C   0  0  0  0  0  0
    4.4520    0.2090   -0.0926 C   0  0  0  0  0  0
    3.7582    0.7844   -1.0943 C   0  0  0  0  0  0
    2.3185    0.9324   -1.1373 C   0  0  0  0  0  0
    1.8067    1.6902   -1.9625 O   0  0  0  0  0  0
    5.9278    0.2895   -0.0569 C   0  0  0  0  0  0
    6.5873    1.5295   -0.0459 C   0  0  0  0  0  0
    5.8835    2.6863   -0.0609 F   0  0  0  0  0  0
    7.9803    1.5882   -0.0078 C   0  0  0  0  0  0
    8.7304    0.4150    0.0221 C   0  0  0  0  0  0
    8.0892   -0.8229    0.0161 C   0  0  0  0  0  0
    9.0340   -2.2693    0.0547 Cl  0  0  0  0  0  0
    6.6926   -0.8869   -0.0221 C   0  0  0  0  0  0
    6.0803   -2.0959   -0.0338 F   0  0  0  0  0  0
   -0.4442   -0.7294   -1.4011 C   0  0  0  0  0  0
   -1.8048   -0.6782   -1.6886 C   0  0  0  0  0  0
   -2.3254   -1.3007   -2.8161 C   0  0  0  0  0  0
   -1.4638   -2.0890   -3.5869 C   0  0  0  0  0  0
   -0.1173   -2.1689   -3.2132 C   0  0  0  0  0  0
    0.4006   -1.4954   -2.1494 N   0  0  0  0  0  0
   -3.7580   -1.0715   -3.1437 C   0  0  0  0  0  0
   -4.6163   -2.1664   -3.2775 C   0  0  0  0  0  0
   -5.9871   -2.0069   -3.5191 C   0  0  0  0  0  0
   -6.8647   -3.1986   -3.6424 C   0  0  0  0  0  0
   -6.6507   -4.3656   -4.2935 C   0  0  0  0  0  0
   -5.4467   -4.7419   -5.1781 C   0  0  0  0  0  0
   -5.1764   -5.9624   -5.1678 O   0  0  0  0  0  0
   -4.9369   -3.8059   -5.8339 O   0  5  0  0  0  0
   -6.5077   -0.7038   -3.6152 C   0  0  0  0  0  0
   -7.8655   -0.4677   -3.8516 N   0  0  0  0  0  0
   -5.6625    0.3999   -3.4963 C   0  0  0  0  0  0
   -4.2965    0.2282   -3.2613 C   0  0  0  0  0  0
   -3.4677    1.3640   -3.2859 N   0  0  0  0  0  0
   -3.2919    2.2972   -2.3222 C   0  0  0  0  0  0
   -2.6059    3.2883   -2.5693 O   0  0  0  0  0  0
   -5.9358    2.6945   -1.6398 H   0  0  0  0  0  0
   -5.0344    4.0594   -0.9952 H   0  0  0  0  0  0
   -5.7429    2.8694    0.0910 H   0  0  0  0  0  0
   -4.2276    1.1279   -0.7425 H   0  0  0  0  0  0
   -2.5375    3.5682    0.0640 H   0  0  0  0  0  0
   -3.5982    2.7448    1.1418 H   0  0  0  0  0  0
   -1.5524    1.8828    1.7164 H   0  0  0  0  0  0
   -2.2987    0.6096    0.8559 H   0  0  0  0  0  0
   -0.7893    1.9052   -1.1693 H   0  0  0  0  0  0
    0.1120    2.2898    0.2418 H   0  0  0  0  0  0
   -0.1798   -0.3852    0.6443 H   0  0  0  0  0  0
    1.6444   -1.0566    1.5473 H   0  0  0  0  0  0
    2.4650   -1.6158    0.1274 H   0  0  0  0  0  0
    3.5918    0.6063    1.8232 H   0  0  0  0  0  0
    4.2353   -1.0192    1.6854 H   0  0  0  0  0  0
    4.3059    1.1989   -1.9294 H   0  0  0  0  0  0
    8.4803    2.5456    0.0018 H   0  0  0  0  0  0
    9.8089    0.4687    0.0515 H   0  0  0  0  0  0
   -2.4755   -0.1098   -1.0800 H   0  0  0  0  0  0
   -1.8239   -2.6101   -4.4622 H   0  0  0  0  0  0
    0.5764   -2.7636   -3.7887 H   0  0  0  0  0  0
   -4.2093   -3.1616   -3.1670 H   0  0  0  0  0  0
   -7.7945   -3.1249   -3.0966 H   0  0  0  0  0  0
   -7.4219   -5.1156   -4.1946 H   0  0  0  0  0  0
   -8.1923    0.4810   -3.9622 H   0  0  0  0  0  0
   -8.4816   -1.2528   -4.0056 H   0  0  0  0  0  0
   -6.0638    1.3969   -3.6136 H   0  0  0  0  0  0
   -2.9310    1.4808   -4.1331 H   0  0  0  0  0  0
  1  2  1  0  0  0
  1 44  1  0  0  0
  1 45  1  0  0  0
  1 46  1  0  0  0
  2  3  1  0  0  0
  2 42  1  0  0  0
  2 47  1  0  0  0
  3  4  1  0  0  0
  3 48  1  0  0  0
  3 49  1  0  0  0
  4  5  1  0  0  0
  4 50  1  0  0  0
  4 51  1  0  0  0
  5  6  1  0  0  0
  5 52  1  0  0  0
  5 53  1  0  0  0
  6  7  1  0  0  0
  6 23  1  0  0  0
  6 54  1  0  0  0
  7  8  1  0  0  0
  7 12  1  0  0  0
  8  9  1  0  0  0
  8 55  1  0  0  0
  8 56  1  0  0  0
  9 10  1  0  0  0
  9 57  1  0  0  0
  9 58  1  0  0  0
 10 11  2  0  0  0
 10 14  1  0  0  0
 11 12  1  0  0  0
 11 59  1  0  0  0
 12 13  2  0  0  0
 14 15  2  0  0  0
 14 21  1  0  0  0
 15 16  1  0  0  0
 15 17  1  0  0  0
 17 18  2  0  0  0
 17 60  1  0  0  0
 18 19  1  0  0  0
 18 61  1  0  0  0
 19 20  1  0  0  0
 19 21  2  0  0  0
 21 22  1  0  0  0
 23 24  1  0  0  0
 23 28  2  0  0  0
 24 25  2  0  0  0
 24 62  1  0  0  0
 25 26  1  0  0  0
 25 29  1  0  0  0
 26 27  2  0  0  0
 26 63  1  0  0  0
 27 28  1  0  0  0
 27 64  1  0  0  0
 29 30  2  0  0  0
 29 40  1  0  0  0
 30 31  1  0  0  0
 30 65  1  0  0  0
 31 32  1  0  0  0
 31 37  2  0  0  0
 32 33  2  0  0  0
 32 66  1  0  0  0
 33 34  1  0  0  0
 33 67  1  0  0  0
 34 35  2  0  0  0
 34 36  1  0  0  0
 37 38  1  0  0  0
 37 39  1  0  0  0
 38 68  1  0  0  0
 38 69  1  0  0  0
 39 40  2  0  0  0
 39 70  1  0  0  0
 40 41  1  0  0  0
 41 42  1  0  0  0
 41 71  1  0  0  0
 42 43  2  0  0  0
M  CHG  1  36  -1
M  END
> <chembl_id>
CHEMBL4115510

> <chembl_pref_name>
None

> <i_m_ct_stereo_status>
1

> <s_m_source_file>
sdf/actives_sanitized.sdf

> <i_m_source_file_index>
119

> <i_lp_mmshare_version>
49012

> <i_f3d_flags>
0

> <s_epik_input>
Tz1DKFtPSF0pL1tDSF09W0NIXVxjKFtjSF0xKWMoW05IMl0pW2NIXWMoYzFjKFtjSF1jMjMpW2NIXVtjSF1uMylbTkhdQyg9TylbQ0BIXShbQ0gzXSlbQ0gyXVtDSDJdW0NIMl1bQ0BASF0yTjRbQ0gyXVtDSDJdQyg9W0NIXUM0PU8pYzVjKEYpW2NIXVtjSF1jKENsKWM1Rg==

> <s_epik_cmdline>
J2VwaWtfcHl0aG9uJywgJy1waHQnLCAnMC41JywgJy1waCcsICc3LjUnLCAnLW50JywgJy1tYScsICcyMDAnLCAnLWltYWUnLCAnPGluZmlsZS5tYWU+JywgJy1vbWFlJywgJzxvdXRmaWxlLm1hZT4n

> <r_lp_tautomer_probability>
1

> <r_epik_Ionization_Penalty>
  0.0006

> <r_epik_Ionization_Penalty_Charging>
  0.0000

> <r_epik_Ionization_Penalty_Neutral>
  0.0006

> <r_epik_State_Penalty>
 -0.0000

> <r_epik_Charging_Adjusted_Penalty>
2.94616838111569e-05

> <i_epik_Tot_Q>
-1

> <i_epik_Tot_abs_Q>
1

> <s_lp_Force_Field>
OPLS3e

> <r_lp_Energy>
103.167205

> <b_lp_Chiralities_Consistent>
1

> <s_lp_Variant>
sdf/actives_sanitized.sdf:119-1

$$$$
sdf/actives_sanitized.sdf:120
                    3D
 Schrodinger Suite 2020-1.
 68 73  0  0  1  0            999 V2000
   -5.3878    0.2076    0.9255 C   0  0  0  0  0  0
   -4.2330    0.2630   -0.0963 C   0  0  2  0  0  0
   -3.1676    1.3342    0.3296 C   0  0  0  0  0  0
   -2.1677    1.8760   -0.7371 C   0  0  0  0  0  0
   -0.6534    1.7682   -0.4024 C   0  0  0  0  0  0
   -0.0701    0.3229   -0.3514 C   0  0  2  0  0  0
    1.3979    0.2412   -0.1479 N   0  0  0  0  0  0
    2.3163    1.0704   -0.9839 C   0  0  0  0  0  0
    3.6968    1.2803   -0.3081 C   0  0  0  0  0  0
    4.2237   -0.0669    0.1573 C   0  0  0  0  0  0
    3.3289   -0.9678    0.6112 C   0  0  0  0  0  0
    1.8909   -0.7954    0.6112 C   0  0  0  0  0  0
    1.1917   -1.5352    1.3066 O   0  0  0  0  0  0
    5.6752   -0.2812    0.3850 C   0  0  0  0  0  0
    6.4551    0.6784    1.0544 C   0  0  0  0  0  0
    5.9009    1.8182    1.5298 F   0  0  0  0  0  0
    7.8182    0.4672    1.2607 C   0  0  0  0  0  0
    8.4244   -0.6998    0.8043 C   0  0  0  0  0  0
    7.6686   -1.6612    0.1370 C   0  0  0  0  0  0
    8.4358   -3.1033   -0.4269 Cl  0  0  0  0  0  0
    6.3018   -1.4543   -0.0739 C   0  0  0  0  0  0
    5.5874   -2.3933   -0.7411 F   0  0  0  0  0  0
   -0.5699   -0.5291   -1.5172 C   0  0  0  0  0  0
   -1.5763   -1.4609   -1.2764 C   0  0  0  0  0  0
   -2.3383   -1.9247   -2.3486 C   0  0  0  0  0  0
   -1.9535   -1.5760   -3.6484 C   0  0  0  0  0  0
   -0.8534   -0.7307   -3.8171 C   0  0  0  0  0  0
   -0.1805   -0.1789   -2.7738 N   0  0  0  0  0  0
   -3.5962   -2.6542   -2.0702 C   0  0  0  0  0  0
   -3.5431   -4.0237   -1.7762 C   0  0  0  0  0  0
   -4.7120   -4.7194   -1.4700 C   0  0  0  0  0  0
   -4.9536   -6.1549   -1.1216 C   0  0  0  0  0  0
   -6.4701   -6.2087   -0.9178 C   0  0  0  0  0  0
   -7.1237   -7.2056   -0.6198 O   0  0  0  0  0  0
   -6.9297   -4.9603   -1.1289 N   0  0  0  0  0  0
   -5.9243   -4.0623   -1.4532 C   0  0  0  0  0  0
   -6.0140   -2.7022   -1.7354 C   0  0  0  0  0  0
   -4.8463   -1.9898   -2.0333 C   0  0  0  0  0  0
   -4.9907   -0.6288   -2.3506 N   0  0  0  0  0  0
   -4.8067    0.4307   -1.5292 C   0  0  0  0  0  0
   -5.1074    1.5579   -1.9193 O   0  0  0  0  0  0
   -6.0854   -0.6010    0.7008 H   0  0  0  0  0  0
   -5.9593    1.1371    0.9420 H   0  0  0  0  0  0
   -5.0112    0.0345    1.9342 H   0  0  0  0  0  0
   -3.7513   -0.7056   -0.0284 H   0  0  0  0  0  0
   -3.6969    2.2019    0.7283 H   0  0  0  0  0  0
   -2.6092    0.9414    1.1807 H   0  0  0  0  0  0
   -2.3420    1.4258   -1.7128 H   0  0  0  0  0  0
   -2.3936    2.9314   -0.8975 H   0  0  0  0  0  0
   -0.1302    2.3580   -1.1528 H   0  0  0  0  0  0
   -0.4623    2.2656    0.5494 H   0  0  0  0  0  0
   -0.5355   -0.0931    0.5440 H   0  0  0  0  0  0
    2.5353    0.4501   -1.8548 H   0  0  0  0  0  0
    1.8678    1.9709   -1.3966 H   0  0  0  0  0  0
    4.3958    1.7670   -0.9890 H   0  0  0  0  0  0
    3.5570    1.9396    0.5495 H   0  0  0  0  0  0
    3.6947   -1.8882    1.0451 H   0  0  0  0  0  0
    8.4064    1.2091    1.7805 H   0  0  0  0  0  0
    9.4806   -0.8561    0.9695 H   0  0  0  0  0  0
   -1.8604   -1.6995   -0.2619 H   0  0  0  0  0  0
   -2.5122   -1.9244   -4.5047 H   0  0  0  0  0  0
   -0.5338   -0.4356   -4.8054 H   0  0  0  0  0  0
   -2.5915   -4.5362   -1.7842 H   0  0  0  0  0  0
   -4.6631   -6.8287   -1.9283 H   0  0  0  0  0  0
   -4.4438   -6.4450   -0.2023 H   0  0  0  0  0  0
   -7.9058   -4.7125   -1.0594 H   0  0  0  0  0  0
   -6.9703   -2.1988   -1.7230 H   0  0  0  0  0  0
   -5.3826   -0.4366   -3.2609 H   0  0  0  0  0  0
  1  2  1  0  0  0
  1 42  1  0  0  0
  1 43  1  0  0  0
  1 44  1  0  0  0
  2  3  1  0  0  0
  2 40  1  0  0  0
  2 45  1  0  0  0
  3  4  1  0  0  0
  3 46  1  0  0  0
  3 47  1  0  0  0
  4  5  1  0  0  0
  4 48  1  0  0  0
  4 49  1  0  0  0
  5  6  1  0  0  0
  5 50  1  0  0  0
  5 51  1  0  0  0
  6  7  1  0  0  0
  6 23  1  0  0  0
  6 52  1  0  0  0
  7  8  1  0  0  0
  7 12  1  0  0  0
  8  9  1  0  0  0
  8 53  1  0  0  0
  8 54  1  0  0  0
  9 10  1  0  0  0
  9 55  1  0  0  0
  9 56  1  0  0  0
 10 11  2  0  0  0
 10 14  1  0  0  0
 11 12  1  0  0  0
 11 57  1  0  0  0
 12 13  2  0  0  0
 14 15  2  0  0  0
 14 21  1  0  0  0
 15 16  1  0  0  0
 15 17  1  0  0  0
 17 18  2  0  0  0
 17 58  1  0  0  0
 18 19  1  0  0  0
 18 59  1  0  0  0
 19 20  1  0  0  0
 19 21  2  0  0  0
 21 22  1  0  0  0
 23 24  1  0  0  0
 23 28  2  0  0  0
 24 25  2  0  0  0
 24 60  1  0  0  0
 25 26  1  0  0  0
 25 29  1  0  0  0
 26 27  2  0  0  0
 26 61  1  0  0  0
 27 28  1  0  0  0
 27 62  1  0  0  0
 29 30  2  0  0  0
 29 38  1  0  0  0
 30 31  1  0  0  0
 30 63  1  0  0  0
 31 32  1  0  0  0
 31 36  2  0  0  0
 32 33  1  0  0  0
 32 64  1  0  0  0
 32 65  1  0  0  0
 33 34  2  0  0  0
 33 35  1  0  0  0
 35 36  1  0  0  0
 35 66  1  0  0  0
 36 37  1  0  0  0
 37 38  2  0  0  0
 37 67  1  0  0  0
 38 39  1  0  0  0
 39 40  1  0  0  0
 39 68  1  0  0  0
 40 41  2  0  0  0
M  END
> <chembl_id>
CHEMBL4113209

> <chembl_pref_name>
None

> <i_m_ct_stereo_status>
1

> <s_m_source_file>
sdf/actives_sanitized.sdf

> <i_m_source_file_index>
120

> <i_lp_mmshare_version>
49012

> <i_f3d_flags>
0

> <s_epik_input>
Tz1DKFtOSF0xKVtDSDJdYyhbY0hdMiljMVtjSF1jKGMyYyhbY0hdYzM0KVtjSF1bY0hdbjQpW05IXUMoPU8pW0NASF0oW0NIM10pW0NIMl1bQ0gyXVtDSDJdW0NAQEhdM041W0NIMl1bQ0gyXUMoPVtDSF1DNT1PKWM2YyhGKVtjSF1bY0hdYyhDbCljNkY=

> <s_epik_cmdline>
J2VwaWtfcHl0aG9uJywgJy1waHQnLCAnMC41JywgJy1waCcsICc3LjUnLCAnLW50JywgJy1tYScsICcyMDAnLCAnLWltYWUnLCAnPGluZmlsZS5tYWU+JywgJy1vbWFlJywgJzxvdXRmaWxlLm1hZT4n

> <r_lp_tautomer_probability>
1

> <r_epik_Ionization_Penalty>
  0.0002

> <r_epik_Ionization_Penalty_Charging>
  0.0000

> <r_epik_Ionization_Penalty_Neutral>
  0.0002

> <r_epik_State_Penalty>
 -0.0000

> <r_epik_Charging_Adjusted_Penalty>
0

> <i_epik_Tot_Q>
0

> <i_epik_Tot_abs_Q>
0

> <s_lp_Force_Field>
OPLS3e

> <r_lp_Energy>
89.799382

> <b_lp_Chiralities_Consistent>
1

> <s_lp_Variant>
sdf/actives_sanitized.sdf:120-1

$$$$
sdf/actives_sanitized.sdf:121
                    3D
 Schrodinger Suite 2020-1.
 70 74  0  0  1  0            999 V2000
   -5.3434    1.6624   -1.0084 C   0  0  0  0  0  0
   -4.1786    0.9084   -1.6816 C   0  0  2  0  0  0
   -2.8245    1.6589   -1.5117 C   0  0  0  0  0  0
   -2.2112    1.6045   -0.0864 C   0  0  0  0  0  0
   -0.6582    1.5524   -0.0519 C   0  0  0  0  0  0
   -0.0302    0.1233   -0.1214 C   0  0  2  0  0  0
    1.4444    0.0896    0.0702 N   0  0  0  0  0  0
    2.3091    1.1507   -0.5308 C   0  0  0  0  0  0
    3.6847    1.2627    0.1794 C   0  0  0  0  0  0
    4.2773   -0.1282    0.2980 C   0  0  0  0  0  0
    3.4436   -1.1649    0.5062 C   0  0  0  0  0  0
    2.0006   -1.0666    0.5699 C   0  0  0  0  0  0
    1.3497   -1.9770    1.0863 O   0  0  0  0  0  0
    5.7419   -0.3188    0.3876 C   0  0  0  0  0  0
    6.3957   -0.8786   -0.7231 C   0  0  0  0  0  0
    5.6834   -1.2511   -1.8150 F   0  0  0  0  0  0
    7.7803   -1.0544   -0.7215 C   0  0  0  0  0  0
    8.5815   -1.7455   -2.0880 Cl  0  0  0  0  0  0
    8.5263   -0.6692    0.3869 C   0  0  0  0  0  0
    7.8927   -0.1085    1.4914 C   0  0  0  0  0  0
    6.5037    0.0863    1.5098 C   0  0  0  0  0  0
    5.8615    0.6582    2.7849 C   0  0  0  0  0  0
    6.6619    0.5393    3.8467 F   0  0  0  0  0  0
    5.6043    1.9529    2.6034 F   0  0  0  0  0  0
    4.7243    0.0333    3.0918 F   0  0  0  0  0  0
   -0.5108   -0.6419   -1.3584 C   0  0  0  0  0  0
   -1.6870   -1.3898   -1.2840 C   0  0  0  0  0  0
   -2.2768   -1.8514   -2.4632 C   0  0  0  0  0  0
   -1.5939   -1.6631   -3.6712 C   0  0  0  0  0  0
   -0.3701   -0.9897   -3.6551 C   0  0  0  0  0  0
    0.1671   -0.4621   -2.5253 N   0  0  0  0  0  0
   -3.6378   -2.4406   -2.4117 C   0  0  0  0  0  0
   -3.8239   -3.6518   -1.7391 C   0  0  0  0  0  0
   -5.0852   -4.2353   -1.6420 C   0  0  0  0  0  0
   -6.2085   -3.6196   -2.2156 C   0  0  0  0  0  0
   -6.0258   -2.3999   -2.8830 C   0  0  0  0  0  0
   -4.7651   -1.8012   -2.9711 C   0  0  0  0  0  0
   -4.6928   -0.5893   -3.6770 N   0  0  0  0  0  0
   -4.4782    0.6517   -3.1829 C   0  0  0  0  0  0
   -4.5204    1.6157   -3.9465 O   0  0  0  0  0  0
   -7.5914   -4.2328   -2.1272 C   0  0  0  0  0  0
   -8.5756   -3.6729   -2.6089 O   0  0  0  0  0  0
   -7.7066   -5.4104   -1.5028 N   0  0  0  0  0  0
   -6.2815    1.1133   -1.1051 H   0  0  0  0  0  0
   -5.4953    2.6504   -1.4460 H   0  0  0  0  0  0
   -5.1599    1.7984    0.0577 H   0  0  0  0  0  0
   -4.0990   -0.0479   -1.1700 H   0  0  0  0  0  0
   -2.1047    1.2572   -2.2243 H   0  0  0  0  0  0
   -2.9345    2.7016   -1.8150 H   0  0  0  0  0  0
   -2.5505    2.4860    0.4595 H   0  0  0  0  0  0
   -2.6082    0.7589    0.4763 H   0  0  0  0  0  0
   -0.2746    2.1899   -0.8485 H   0  0  0  0  0  0
   -0.3300    2.0133    0.8810 H   0  0  0  0  0  0
   -0.4578   -0.3945    0.7397 H   0  0  0  0  0  0
    2.5481    0.7879   -1.5320 H   0  0  0  0  0  0
    1.8076    2.1027   -0.6888 H   0  0  0  0  0  0
    4.3514    1.9377   -0.3582 H   0  0  0  0  0  0
    3.5139    1.6793    1.1722 H   0  0  0  0  0  0
    3.8672   -2.1473    0.6629 H   0  0  0  0  0  0
    9.5981   -0.8046    0.3949 H   0  0  0  0  0  0
    8.5003    0.1783    2.3373 H   0  0  0  0  0  0
   -2.2059   -1.4953   -0.3420 H   0  0  0  0  0  0
   -2.0123   -2.0124   -4.6039 H   0  0  0  0  0  0
    0.1802   -0.8269   -4.5699 H   0  0  0  0  0  0
   -2.9796   -4.1516   -1.2861 H   0  0  0  0  0  0
   -5.1685   -5.1736   -1.1130 H   0  0  0  0  0  0
   -6.8726   -1.9012   -3.3357 H   0  0  0  0  0  0
   -4.9511   -0.6458   -4.6514 H   0  0  0  0  0  0
   -6.8935   -5.8644   -1.1141 H   0  0  0  0  0  0
   -8.6107   -5.8517   -1.4199 H   0  0  0  0  0  0
  1  2  1  0  0  0
  1 44  1  0  0  0
  1 45  1  0  0  0
  1 46  1  0  0  0
  2  3  1  0  0  0
  2 39  1  0  0  0
  2 47  1  0  0  0
  3  4  1  0  0  0
  3 48  1  0  0  0
  3 49  1  0  0  0
  4  5  1  0  0  0
  4 50  1  0  0  0
  4 51  1  0  0  0
  5  6  1  0  0  0
  5 52  1  0  0  0
  5 53  1  0  0  0
  6  7  1  0  0  0
  6 26  1  0  0  0
  6 54  1  0  0  0
  7  8  1  0  0  0
  7 12  1  0  0  0
  8  9  1  0  0  0
  8 55  1  0  0  0
  8 56  1  0  0  0
  9 10  1  0  0  0
  9 57  1  0  0  0
  9 58  1  0  0  0
 10 11  2  0  0  0
 10 14  1  0  0  0
 11 12  1  0  0  0
 11 59  1  0  0  0
 12 13  2  0  0  0
 14 15  2  0  0  0
 14 21  1  0  0  0
 15 16  1  0  0  0
 15 17  1  0  0  0
 17 18  1  0  0  0
 17 19  2  0  0  0
 19 20  1  0  0  0
 19 60  1  0  0  0
 20 21  2  0  0  0
 20 61  1  0  0  0
 21 22  1  0  0  0
 22 23  1  0  0  0
 22 24  1  0  0  0
 22 25  1  0  0  0
 26 27  1  0  0  0
 26 31  2  0  0  0
 27 28  2  0  0  0
 27 62  1  0  0  0
 28 29  1  0  0  0
 28 32  1  0  0  0
 29 30  2  0  0  0
 29 63  1  0  0  0
 30 31  1  0  0  0
 30 64  1  0  0  0
 32 33  2  0  0  0
 32 37  1  0  0  0
 33 34  1  0  0  0
 33 65  1  0  0  0
 34 35  2  0  0  0
 34 66  1  0  0  0
 35 36  1  0  0  0
 35 41  1  0  0  0
 36 37  2  0  0  0
 36 67  1  0  0  0
 37 38  1  0  0  0
 38 39  1  0  0  0
 38 68  1  0  0  0
 39 40  2  0  0  0
 41 42  2  0  0  0
 41 43  1  0  0  0
 43 69  1  0  0  0
 43 70  1  0  0  0
M  END
> <chembl_id>
CHEMBL3974516

> <chembl_pref_name>
None

> <i_m_ct_stereo_status>
1

> <s_m_source_file>
sdf/actives_sanitized.sdf

> <i_m_source_file_index>
121

> <i_lp_mmshare_version>
49012

> <i_f3d_flags>
0

> <s_epik_input>
bjFbY0hdW2NIXWMoW2NIXWMxMiljM2MoW2NIXWMoW2NIXVtjSF0zKUMoPU8pW05IMl0pW05IXUMoPU8pW0NASF0oW0NIM10pW0NIMl1bQ0gyXVtDSDJdW0NAQEhdMk40W0NIMl1bQ0gyXUMoPVtDSF1DND1PKWM1YyhGKWMoQ2wpW2NIXVtjSF1jNUMoRikoRilG

> <s_epik_cmdline>
J2VwaWtfcHl0aG9uJywgJy1waHQnLCAnMC41JywgJy1waCcsICc3LjUnLCAnLW50JywgJy1tYScsICcyMDAnLCAnLWltYWUnLCAnPGluZmlsZS5tYWU+JywgJy1vbWFlJywgJzxvdXRmaWxlLm1hZT4n

> <r_lp_tautomer_probability>
1

> <r_epik_Ionization_Penalty>
  0.0001

> <r_epik_Ionization_Penalty_Charging>
  0.0000

> <r_epik_Ionization_Penalty_Neutral>
  0.0001

> <r_epik_State_Penalty>
 -0.0000

> <r_epik_Charging_Adjusted_Penalty>
0

> <i_epik_Tot_Q>
0

> <i_epik_Tot_abs_Q>
0

> <s_lp_Force_Field>
OPLS3e

> <r_lp_Energy>
92.813599

> <b_lp_Chiralities_Consistent>
1

> <s_lp_Variant>
sdf/actives_sanitized.sdf:121-1

$$$$
sdf/actives_sanitized.sdf:122
                    3D
 Schrodinger Suite 2020-1.
 75 79  0  0  1  0            999 V2000
  -10.3149   -6.1191   -0.6400 C   0  0  0  0  0  0
   -9.5304   -5.0804   -1.2104 O   0  0  0  0  0  0
   -8.1952   -5.0428   -1.0263 C   0  0  0  0  0  0
   -7.5617   -5.8702   -0.3671 O   0  0  0  0  0  0
   -7.6928   -3.9324   -1.6983 N   0  0  0  0  0  0
   -6.3672   -3.4800   -1.8153 C   0  0  0  0  0  0
   -5.2531   -4.1280   -1.2628 C   0  0  0  0  0  0
   -3.9751   -3.6045   -1.4456 C   0  0  0  0  0  0
   -3.7709   -2.4327   -2.1815 C   0  0  0  0  0  0
   -4.8954   -1.7655   -2.7147 C   0  0  0  0  0  0
   -4.8032   -0.5914   -3.4797 N   0  0  0  0  0  0
   -4.5006    0.6580   -3.0583 C   0  0  0  0  0  0
   -4.5276    1.5852   -3.8667 O   0  0  0  0  0  0
   -4.1202    0.9700   -1.5860 C   0  0  2  0  0  0
   -5.2194    1.8060   -0.8991 C   0  0  0  0  0  0
   -2.7288    1.6664   -1.5107 C   0  0  0  0  0  0
   -2.0506    1.6372   -0.1149 C   0  0  0  0  0  0
   -0.5019    1.5186   -0.1479 C   0  0  0  0  0  0
    0.0689    0.0647   -0.2151 C   0  0  2  0  0  0
    1.5505    0.0061   -0.1423 N   0  0  0  0  0  0
    2.3659    1.0082   -0.8921 C   0  0  0  0  0  0
    3.7723    0.4781   -1.2834 C   0  0  0  0  0  0
    4.3954   -0.2164   -0.0841 C   0  0  0  0  0  0
    3.5766   -0.8998    0.7405 C   0  0  0  0  0  0
    2.1406   -0.9935    0.5920 C   0  0  0  0  0  0
    1.5269   -1.9315    1.1043 O   0  0  0  0  0  0
    5.8702   -0.2767    0.0851 C   0  0  0  0  0  0
    6.4132   -0.0416    1.3570 C   0  0  0  0  0  0
    7.7883   -0.0893    1.5719 C   0  0  0  0  0  0
    8.4295    0.2134    3.1455 Cl  0  0  0  0  0  0
    8.6432   -0.3808    0.5144 C   0  0  0  0  0  0
    8.1220   -0.6303   -0.7524 C   0  0  0  0  0  0
    6.7348   -0.5877   -0.9850 C   0  0  0  0  0  0
    6.1717   -0.8558   -2.2212 O   0  0  0  0  0  0
    7.0076   -1.1888   -3.3243 C   0  0  0  0  0  0
   -0.5151   -0.7322   -1.3852 C   0  0  0  0  0  0
   -1.7190   -1.4169   -1.2111 C   0  0  0  0  0  0
   -2.3895   -1.9128   -2.3318 C   0  0  0  0  0  0
   -1.7630   -1.8238   -3.5807 C   0  0  0  0  0  0
   -0.5108   -1.2114   -3.6636 C   0  0  0  0  0  0
    0.1084   -0.6512   -2.5932 N   0  0  0  0  0  0
   -6.1747   -2.3026   -2.5415 C   0  0  0  0  0  0
  -11.3613   -5.9858   -0.9145 H   0  0  0  0  0  0
  -10.2450   -6.1099    0.4487 H   0  0  0  0  0  0
   -9.9918   -7.0970   -1.0001 H   0  0  0  0  0  0
   -8.3779   -3.3664   -2.1770 H   0  0  0  0  0  0
   -5.3421   -5.0386   -0.6931 H   0  0  0  0  0  0
   -3.1315   -4.1230   -1.0128 H   0  0  0  0  0  0
   -5.1063   -0.6802   -4.4386 H   0  0  0  0  0  0
   -4.0591    0.0350   -1.0340 H   0  0  0  0  0  0
   -6.1845    1.2979   -0.9316 H   0  0  0  0  0  0
   -5.3453    2.7797   -1.3748 H   0  0  0  0  0  0
   -4.9836    1.9803    0.1512 H   0  0  0  0  0  0
   -2.0605    1.2093   -2.2397 H   0  0  0  0  0  0
   -2.8101    2.7014   -1.8481 H   0  0  0  0  0  0
   -2.3257    2.5523    0.4116 H   0  0  0  0  0  0
   -2.4548    0.8315    0.4989 H   0  0  0  0  0  0
   -0.1194    2.1316   -0.9644 H   0  0  0  0  0  0
   -0.1171    1.9791    0.7634 H   0  0  0  0  0  0
   -0.3135   -0.4167    0.6876 H   0  0  0  0  0  0
    1.8176    1.4447   -1.7267 H   0  0  0  0  0  0
    2.5263    1.8324   -0.1954 H   0  0  0  0  0  0
    3.6363   -0.2472   -2.0870 H   0  0  0  0  0  0
    4.4017    1.2849   -1.6602 H   0  0  0  0  0  0
    4.0074   -1.4552    1.5617 H   0  0  0  0  0  0
    5.7627    0.1916    2.1882 H   0  0  0  0  0  0
    9.7110   -0.4190    0.6732 H   0  0  0  0  0  0
    8.8172   -0.8624   -1.5445 H   0  0  0  0  0  0
    6.3884   -1.3639   -4.2039 H   0  0  0  0  0  0
    7.5749   -2.1011   -3.1343 H   0  0  0  0  0  0
    7.6978   -0.3784   -3.5632 H   0  0  0  0  0  0
   -2.1914   -1.4490   -0.2397 H   0  0  0  0  0  0
   -2.2448   -2.2039   -4.4699 H   0  0  0  0  0  0
   -0.0021   -1.1261   -4.6124 H   0  0  0  0  0  0
   -7.0274   -1.7947   -2.9718 H   0  0  0  0  0  0
  1  2  1  0  0  0
  1 43  1  0  0  0
  1 44  1  0  0  0
  1 45  1  0  0  0
  2  3  1  0  0  0
  3  4  2  0  0  0
  3  5  1  0  0  0
  5  6  1  0  0  0
  5 46  1  0  0  0
  6  7  2  0  0  0
  6 42  1  0  0  0
  7  8  1  0  0  0
  7 47  1  0  0  0
  8  9  2  0  0  0
  8 48  1  0  0  0
  9 10  1  0  0  0
  9 38  1  0  0  0
 10 11  1  0  0  0
 10 42  2  0  0  0
 11 12  1  0  0  0
 11 49  1  0  0  0
 12 13  2  0  0  0
 12 14  1  0  0  0
 14 15  1  0  0  0
 14 16  1  0  0  0
 14 50  1  0  0  0
 15 51  1  0  0  0
 15 52  1  0  0  0
 15 53  1  0  0  0
 16 17  1  0  0  0
 16 54  1  0  0  0
 16 55  1  0  0  0
 17 18  1  0  0  0
 17 56  1  0  0  0
 17 57  1  0  0  0
 18 19  1  0  0  0
 18 58  1  0  0  0
 18 59  1  0  0  0
 19 20  1  0  0  0
 19 36  1  0  0  0
 19 60  1  0  0  0
 20 21  1  0  0  0
 20 25  1  0  0  0
 21 22  1  0  0  0
 21 61  1  0  0  0
 21 62  1  0  0  0
 22 23  1  0  0  0
 22 63  1  0  0  0
 22 64  1  0  0  0
 23 24  2  0  0  0
 23 27  1  0  0  0
 24 25  1  0  0  0
 24 65  1  0  0  0
 25 26  2  0  0  0
 27 28  2  0  0  0
 27 33  1  0  0  0
 28 29  1  0  0  0
 28 66  1  0  0  0
 29 30  1  0  0  0
 29 31  2  0  0  0
 31 32  1  0  0  0
 31 67  1  0  0  0
 32 33  2  0  0  0
 32 68  1  0  0  0
 33 34  1  0  0  0
 34 35  1  0  0  0
 35 69  1  0  0  0
 35 70  1  0  0  0
 35 71  1  0  0  0
 36 37  1  0  0  0
 36 41  2  0  0  0
 37 38  2  0  0  0
 37 72  1  0  0  0
 38 39  1  0  0  0
 39 40  2  0  0  0
 39 73  1  0  0  0
 40 41  1  0  0  0
 40 74  1  0  0  0
 42 75  1  0  0  0
M  END
> <chembl_id>
CHEMBL4108942

> <chembl_pref_name>
None

> <i_m_ct_stereo_status>
1

> <s_m_source_file>
sdf/actives_sanitized.sdf

> <i_m_source_file_index>
122

> <i_lp_mmshare_version>
49012

> <i_f3d_flags>
0

> <s_epik_input>
W0NIM11PQyg9TylbTkhdYyhbY0hdW2NIXTEpW2NIXWMoYzEyKVtOSF1DKD1PKVtDQEhdKFtDSDNdKVtDSDJdW0NIMl1bQ0gyXVtDQEBIXShjM1tjSF1jMltjSF1bY0hdbjMpTjRbQ0gyXVtDSDJdQyg9W0NIXUM0PU8pYzVbY0hdYyhDbClbY0hdW2NIXWM1T1tDSDNd

> <s_epik_cmdline>
J2VwaWtfcHl0aG9uJywgJy1waHQnLCAnMC41JywgJy1waCcsICc3LjUnLCAnLW50JywgJy1tYScsICcyMDAnLCAnLWltYWUnLCAnPGluZmlsZS5tYWU+JywgJy1vbWFlJywgJzxvdXRmaWxlLm1hZT4n

> <r_lp_tautomer_probability>
1

> <r_epik_Ionization_Penalty>
  0.0001

> <r_epik_Ionization_Penalty_Charging>
  0.0000

> <r_epik_Ionization_Penalty_Neutral>
  0.0001

> <r_epik_State_Penalty>
 -0.0000

> <r_epik_Charging_Adjusted_Penalty>
0

> <i_epik_Tot_Q>
0

> <i_epik_Tot_abs_Q>
0

> <s_epik_Chemistry_Notes>
This compound has an ester and may undergo hydrolysis at high or low pH.

> <s_lp_Force_Field>
OPLS3e

> <r_lp_Energy>
98.917214

> <b_lp_Chiralities_Consistent>
1

> <s_lp_Variant>
sdf/actives_sanitized.sdf:122-1

$$$$
sdf/actives_sanitized.sdf:123
                    3D
 Schrodinger Suite 2020-1.
 71 75  0  0  1  0            999 V2000
   -3.2528    1.5357    0.0155 C   0  0  0  0  0  0
   -2.1103    0.7092   -0.1606 O   0  0  0  0  0  0
   -0.8675    1.2002    0.0194 C   0  0  0  0  0  0
   -0.6205    2.3655    0.3365 O   0  0  0  0  0  0
    0.0451    0.1764   -0.2174 N   0  0  0  0  0  0
    1.4481    0.1919   -0.1388 C   0  0  0  0  0  0
    2.2087    1.2895    0.2888 C   0  0  0  0  0  0
    3.5982    1.2031    0.3386 C   0  0  0  0  0  0
    4.2648    0.0294   -0.0283 C   0  0  0  0  0  0
    3.4997   -1.0684   -0.4800 C   0  0  0  0  0  0
    4.0645   -2.2970   -0.8589 N   0  0  0  0  0  0
    4.7723   -2.5799   -1.9767 C   0  0  0  0  0  0
    5.1382   -3.7375   -2.1768 O   0  0  0  0  0  0
    5.1425   -1.4945   -3.0228 C   0  0  2  0  0  0
    4.3808   -1.7206   -4.3449 C   0  0  0  0  0  0
    6.6836   -1.4402   -3.2417 C   0  0  0  0  0  0
    7.2083   -0.1419   -3.9113 C   0  0  0  0  0  0
    8.6059    0.3237   -3.4182 C   0  0  0  0  0  0
    8.6126    1.2340   -2.1473 C   0  0  2  0  0  0
    9.9635    1.7287   -1.7803 N   0  0  0  0  0  0
   11.1386    0.8120   -1.8856 C   0  0  0  0  0  0
   12.2962    1.1869   -0.9210 C   0  0  0  0  0  0
   12.5315    2.6857   -0.9885 C   0  0  0  0  0  0
   11.4518    3.4806   -1.1273 C   0  0  0  0  0  0
   10.0950    3.0147   -1.3160 C   0  0  0  0  0  0
    9.1458    3.7584   -1.0610 O   0  0  0  0  0  0
   13.8448    3.2707   -0.6191 C   0  0  0  0  0  0
   14.4254    4.2714   -1.4182 C   0  0  0  0  0  0
   13.8032    4.7092   -2.5387 F   0  0  0  0  0  0
   15.6615    4.8223   -1.0818 C   0  0  0  0  0  0
   16.3381    4.3835    0.0527 C   0  0  0  0  0  0
   15.7799    3.3908    0.8546 C   0  0  0  0  0  0
   16.7198    2.8012    2.4037 Br  0  0  0  0  0  0
   14.5403    2.8357    0.5233 C   0  0  0  0  0  0
   14.0127    1.8843    1.3302 F   0  0  0  0  0  0
    7.8568    0.5990   -0.9764 C   0  0  0  0  0  0
    6.4780    0.7896   -0.8702 C   0  0  0  0  0  0
    5.7474    0.0006    0.0219 C   0  0  0  0  0  0
    6.4436   -0.8613    0.8781 C   0  0  0  0  0  0
    7.8354   -0.9256    0.7827 C   0  0  0  0  0  0
    8.5445   -0.2267   -0.1401 N   0  0  0  0  0  0
    2.1045   -0.9825   -0.5135 C   0  0  0  0  0  0
   -4.1592    0.9552   -0.1559 H   0  0  0  0  0  0
   -3.2452    2.3695   -0.6879 H   0  0  0  0  0  0
   -3.2938    1.9377    1.0289 H   0  0  0  0  0  0
   -0.3551   -0.7109   -0.4849 H   0  0  0  0  0  0
    1.7550    2.2186    0.5932 H   0  0  0  0  0  0
    4.1629    2.0619    0.6725 H   0  0  0  0  0  0
    3.8143   -3.0818   -0.2752 H   0  0  0  0  0  0
    4.8226   -0.5246   -2.6489 H   0  0  0  0  0  0
    3.3013   -1.7290   -4.1861 H   0  0  0  0  0  0
    4.6506   -2.6690   -4.8122 H   0  0  0  0  0  0
    4.5933   -0.9274   -5.0623 H   0  0  0  0  0  0
    7.1846   -1.5734   -2.2835 H   0  0  0  0  0  0
    7.0093   -2.3028   -3.8261 H   0  0  0  0  0  0
    7.2494   -0.3121   -4.9881 H   0  0  0  0  0  0
    6.4979    0.6761   -3.7867 H   0  0  0  0  0  0
    9.2400   -0.5521   -3.2795 H   0  0  0  0  0  0
    9.0688    0.8899   -4.2279 H   0  0  0  0  0  0
    8.0239    2.1066   -2.4386 H   0  0  0  0  0  0
   10.8497   -0.2375   -1.8326 H   0  0  0  0  0  0
   11.5215    0.9483   -2.8980 H   0  0  0  0  0  0
   11.9866    0.9143    0.0890 H   0  0  0  0  0  0
   13.1989    0.6228   -1.1575 H   0  0  0  0  0  0
   11.5820    4.5522   -1.0658 H   0  0  0  0  0  0
   16.0993    5.5885   -1.7047 H   0  0  0  0  0  0
   17.2955    4.8133    0.3083 H   0  0  0  0  0  0
    5.9643    1.4429   -1.5611 H   0  0  0  0  0  0
    5.9158   -1.4825    1.5872 H   0  0  0  0  0  0
    8.4011   -1.5804    1.4289 H   0  0  0  0  0  0
    1.5270   -1.8357   -0.8433 H   0  0  0  0  0  0
  1  2  1  0  0  0
  1 43  1  0  0  0
  1 44  1  0  0  0
  1 45  1  0  0  0
  2  3  1  0  0  0
  3  4  2  0  0  0
  3  5  1  0  0  0
  5  6  1  0  0  0
  5 46  1  0  0  0
  6  7  2  0  0  0
  6 42  1  0  0  0
  7  8  1  0  0  0
  7 47  1  0  0  0
  8  9  2  0  0  0
  8 48  1  0  0  0
  9 10  1  0  0  0
  9 38  1  0  0  0
 10 11  1  0  0  0
 10 42  2  0  0  0
 11 12  1  0  0  0
 11 49  1  0  0  0
 12 13  2  0  0  0
 12 14  1  0  0  0
 14 15  1  0  0  0
 14 16  1  0  0  0
 14 50  1  0  0  0
 15 51  1  0  0  0
 15 52  1  0  0  0
 15 53  1  0  0  0
 16 17  1  0  0  0
 16 54  1  0  0  0
 16 55  1  0  0  0
 17 18  1  0  0  0
 17 56  1  0  0  0
 17 57  1  0  0  0
 18 19  1  0  0  0
 18 58  1  0  0  0
 18 59  1  0  0  0
 19 20  1  0  0  0
 19 36  1  0  0  0
 19 60  1  0  0  0
 20 21  1  0  0  0
 20 25  1  0  0  0
 21 22  1  0  0  0
 21 61  1  0  0  0
 21 62  1  0  0  0
 22 23  1  0  0  0
 22 63  1  0  0  0
 22 64  1  0  0  0
 23 24  2  0  0  0
 23 27  1  0  0  0
 24 25  1  0  0  0
 24 65  1  0  0  0
 25 26  2  0  0  0
 27 28  2  0  0  0
 27 34  1  0  0  0
 28 29  1  0  0  0
 28 30  1  0  0  0
 30 31  2  0  0  0
 30 66  1  0  0  0
 31 32  1  0  0  0
 31 67  1  0  0  0
 32 33  1  0  0  0
 32 34  2  0  0  0
 34 35  1  0  0  0
 36 37  1  0  0  0
 36 41  2  0  0  0
 37 38  2  0  0  0
 37 68  1  0  0  0
 38 39  1  0  0  0
 39 40  2  0  0  0
 39 69  1  0  0  0
 40 41  1  0  0  0
 40 70  1  0  0  0
 42 71  1  0  0  0
M  END
> <chembl_id>
CHEMBL4112357

> <chembl_pref_name>
None

> <i_m_ct_stereo_status>
1

> <s_m_source_file>
sdf/actives_sanitized.sdf

> <i_m_source_file_index>
123

> <i_lp_mmshare_version>
49012

> <i_f3d_flags>
0

> <s_epik_input>
W0NIM11PQyg9TylbTkhdYyhbY0hdW2NIXTEpW2NIXWMoYzEyKVtOSF1DKD1PKVtDQEhdKFtDSDNdKVtDSDJdW0NIMl1bQ0gyXVtDQEBIXShjM1tjSF1jMltjSF1bY0hdbjMpTjRbQ0gyXVtDSDJdQyg9W0NIXUM0PU8pYzVjKEYpW2NIXVtjSF1jKEJyKWM1Rg==

> <s_epik_cmdline>
J2VwaWtfcHl0aG9uJywgJy1waHQnLCAnMC41JywgJy1waCcsICc3LjUnLCAnLW50JywgJy1tYScsICcyMDAnLCAnLWltYWUnLCAnPGluZmlsZS5tYWU+JywgJy1vbWFlJywgJzxvdXRmaWxlLm1hZT4n

> <r_lp_tautomer_probability>
1

> <r_epik_Ionization_Penalty>
  0.0001

> <r_epik_Ionization_Penalty_Charging>
  0.0000

> <r_epik_Ionization_Penalty_Neutral>
  0.0001

> <r_epik_State_Penalty>
 -0.0000

> <r_epik_Charging_Adjusted_Penalty>
0

> <i_epik_Tot_Q>
0

> <i_epik_Tot_abs_Q>
0

> <s_epik_Chemistry_Notes>
This compound has an ester and may undergo hydrolysis at high or low pH.

> <s_lp_Force_Field>
OPLS3e

> <r_lp_Energy>
96.880753

> <b_lp_Chiralities_Consistent>
1

> <s_lp_Variant>
sdf/actives_sanitized.sdf:123-1

$$$$
sdf/actives_sanitized.sdf:124
                    3D
 Schrodinger Suite 2020-1.
 61 66  0  0  1  0            999 V2000
   -0.4527    1.5589    0.0857 C   0  0  0  0  0  0
   -1.3850    2.0760    1.0016 C   0  0  0  0  0  0
   -1.7267    3.4257    0.9840 C   0  0  0  0  0  0
   -1.1433    4.2767    0.0510 C   0  0  0  0  0  0
   -0.2221    3.7866   -0.8685 C   0  0  0  0  0  0
    0.1173    2.4373   -0.8515 C   0  0  0  0  0  0
   -0.5023   -5.4610   -3.6945 C   0  0  0  0  0  0
   -0.3698   -5.4629   -2.3070 C   0  0  0  0  0  0
   -0.6402   -3.0288   -3.6852 C   0  0  0  0  0  0
   -0.6358   -4.2466   -4.3720 C   0  0  0  0  0  0
   -0.5063   -3.0262   -2.2838 C   0  0  0  0  0  0
   -0.3740   -4.2669   -1.6386 N   0  0  0  0  0  0
   -0.2598   -4.1366   -0.2995 N   0  0  0  0  0  0
   -0.4643   -2.0756   -1.2335 C   0  0  0  0  0  0
   -0.3136   -2.8418   -0.0673 C   0  0  0  0  0  0
   -0.2175   -2.2374    1.3249 C   0  0  0  0  0  0
   -0.6548   -0.7532    1.2703 C   0  0  0  0  0  0
   -0.0313    0.0580    0.0803 C   0  0  1  0  0  0
   -0.5924   -0.5564   -1.2439 C   0  0  0  0  0  0
    1.4479   -0.0091    0.0815 N   0  0  0  0  0  0
    2.2865    0.4405    1.0365 C   0  0  0  0  0  0
    3.7455    0.2635    0.7179 C   0  0  0  0  0  0
    1.9358    0.9995    2.0756 O   0  0  0  0  0  0
    4.4231   -0.9176    1.0776 C   0  0  0  0  0  0
    5.7789   -1.0645    0.7821 C   0  0  0  0  0  0
    6.4869   -0.0484    0.1318 C   0  0  0  0  0  0
    5.8122    1.1256   -0.2242 C   0  0  0  0  0  0
    4.4568    1.2875    0.0622 C   0  0  0  0  0  0
    3.7090    2.7784   -0.4161 Cl  0  0  0  0  0  0
    7.8651   -0.2122   -0.1547 N   0  0  0  0  0  0
    8.6128   -1.3607   -0.2366 C   0  0  0  0  0  0
    9.8596   -1.0852   -0.5181 N   0  0  0  0  0  0
    9.8416    0.2355   -0.6097 C   0  0  0  0  0  0
    8.6821    0.8234   -0.4006 N   0  0  0  0  0  0
   11.0940    1.0286   -0.9095 C   0  0  0  0  0  0
   -0.5075   -6.7753   -4.4529 C   0  0  0  0  0  0
    3.6356   -2.2285    1.8950 Cl  0  0  0  0  0  0
   -1.4738    5.5878    0.0380 F   0  0  0  0  0  0
   -1.8597    1.4532    1.7430 H   0  0  0  0  0  0
   -2.4420    3.8114    1.6955 H   0  0  0  0  0  0
    0.2298    4.4501   -1.5911 H   0  0  0  0  0  0
    0.8363    2.0742   -1.5712 H   0  0  0  0  0  0
   -0.2648   -6.3625   -1.7171 H   0  0  0  0  0  0
   -0.7461   -2.1012   -4.2280 H   0  0  0  0  0  0
   -0.7393   -4.2404   -5.4477 H   0  0  0  0  0  0
   -0.8385   -2.7795    2.0391 H   0  0  0  0  0  0
    0.8070   -2.2996    1.6885 H   0  0  0  0  0  0
   -1.7431   -0.7367    1.1854 H   0  0  0  0  0  0
   -0.4285   -0.2830    2.2281 H   0  0  0  0  0  0
   -0.0707   -0.1434   -2.1088 H   0  0  0  0  0  0
   -1.6433   -0.2925   -1.3760 H   0  0  0  0  0  0
    1.8354   -0.6946   -0.5503 H   0  0  0  0  0  0
    6.2766   -1.9767    1.0767 H   0  0  0  0  0  0
    6.3356    1.9253   -0.7290 H   0  0  0  0  0  0
    8.1748   -2.3358   -0.0839 H   0  0  0  0  0  0
   10.9978    2.0955   -0.7044 H   0  0  0  0  0  0
   11.4522    0.8649   -1.9260 H   0  0  0  0  0  0
   11.9125    0.6829   -0.2770 H   0  0  0  0  0  0
   -0.6812   -6.6358   -5.5208 H   0  0  0  0  0  0
   -1.2907   -7.4275   -4.0650 H   0  0  0  0  0  0
    0.4433   -7.2922   -4.3189 H   0  0  0  0  0  0
  1  2  2  0  0  0
  1  6  1  0  0  0
  1 18  1  0  0  0
  2  3  1  0  0  0
  2 39  1  0  0  0
  3  4  2  0  0  0
  3 40  1  0  0  0
  4  5  1  0  0  0
  4 38  1  0  0  0
  5  6  2  0  0  0
  5 41  1  0  0  0
  6 42  1  0  0  0
  7  8  2  0  0  0
  7 10  1  0  0  0
  7 36  1  0  0  0
  8 12  1  0  0  0
  8 43  1  0  0  0
  9 11  1  0  0  0
  9 10  2  0  0  0
  9 44  1  0  0  0
 10 45  1  0  0  0
 11 12  1  0  0  0
 11 14  2  0  0  0
 12 13  1  0  0  0
 13 15  2  0  0  0
 14 15  1  0  0  0
 14 19  1  0  0  0
 15 16  1  0  0  0
 16 17  1  0  0  0
 16 46  1  0  0  0
 16 47  1  0  0  0
 17 18  1  0  0  0
 17 48  1  0  0  0
 17 49  1  0  0  0
 18 19  1  0  0  0
 18 20  1  0  0  0
 19 50  1  0  0  0
 19 51  1  0  0  0
 20 21  1  0  0  0
 20 52  1  0  0  0
 21 22  1  0  0  0
 21 23  2  0  0  0
 22 24  2  0  0  0
 22 28  1  0  0  0
 24 25  1  0  0  0
 24 37  1  0  0  0
 25 26  2  0  0  0
 25 53  1  0  0  0
 26 27  1  0  0  0
 26 30  1  0  0  0
 27 28  2  0  0  0
 27 54  1  0  0  0
 28 29  1  0  0  0
 30 31  1  0  0  0
 30 34  1  0  0  0
 31 32  2  0  0  0
 31 55  1  0  0  0
 32 33  1  0  0  0
 33 34  2  0  0  0
 33 35  1  0  0  0
 35 56  1  0  0  0
 35 57  1  0  0  0
 35 58  1  0  0  0
 36 59  1  0  0  0
 36 60  1  0  0  0
 36 61  1  0  0  0
M  END
> <chembl_id>
CHEMBL3628951

> <chembl_pref_name>
None

> <i_m_ct_stereo_status>
1

> <s_m_source_file>
sdf/actives_sanitized.sdf

> <i_m_source_file_index>
124

> <i_lp_mmshare_version>
49012

> <i_f3d_flags>
0

> <s_epik_input>
W2NIXTFbY0hdYyhbQ0gzXSlbY0hdbihjMTIpbmMzYzJbQ0gyXVtDQF0oW0NIMl1bQ0gyXTMpKGM0W2NIXVtjSF1jKEYpW2NIXVtjSF00KVtOSF1DKD1PKWM1YyhDbClbY0hdYyhbY0hdYzVDbCktbjZbY0hdbmMobjYpW0NIM10=

> <s_epik_cmdline>
J2VwaWtfcHl0aG9uJywgJy1waHQnLCAnMC41JywgJy1waCcsICc3LjUnLCAnLW50JywgJy1tYScsICcyMDAnLCAnLWltYWUnLCAnPGluZmlsZS5tYWU+JywgJy1vbWFlJywgJzxvdXRmaWxlLm1hZT4n

> <r_lp_tautomer_probability>
1

> <r_epik_Ionization_Penalty>
  0.0001

> <r_epik_Ionization_Penalty_Charging>
  0.0000

> <r_epik_Ionization_Penalty_Neutral>
  0.0001

> <r_epik_State_Penalty>
 -0.0000

> <r_epik_Charging_Adjusted_Penalty>
0

> <i_epik_Tot_Q>
0

> <i_epik_Tot_abs_Q>
0

> <s_lp_Force_Field>
OPLS3e

> <r_lp_Energy>
30.769118

> <b_lp_Chiralities_Consistent>
1

> <s_lp_Variant>
sdf/actives_sanitized.sdf:124-1

$$$$
sdf/actives_sanitized.sdf:125
                    3D
 Schrodinger Suite 2020-1.
 62 67  0  0  1  0            999 V2000
   -0.5545    1.6325   -0.0247 C   0  0  0  0  0  0
   -1.5380    2.1987    0.8045 C   0  0  0  0  0  0
   -1.9215    3.5281    0.6499 C   0  0  0  0  0  0
   -1.3374    4.3060   -0.3443 C   0  0  0  0  0  0
   -0.3759    3.7628   -1.1897 C   0  0  0  0  0  0
    0.0062    2.4338   -1.0341 C   0  0  0  0  0  0
   -0.3788   -5.1211   -3.7883 C   0  0  0  0  0  0
   -0.2094   -5.3291   -2.4189 C   0  0  0  0  0  0
   -0.6755   -2.7239   -3.4514 C   0  0  0  0  0  0
   -0.6076   -3.8388   -4.2859 C   0  0  0  0  0  0
   -0.5010   -2.9376   -2.0770 C   0  0  0  0  0  0
   -0.2720   -4.2344   -1.5407 C   0  0  0  0  0  0
   -0.1508   -4.0975   -0.1196 C   0  0  0  0  0  0
   -0.5044   -2.0534   -1.0128 N   0  0  0  0  0  0
   -0.3212   -2.7514    0.1757 C   0  0  0  0  0  0
   -0.2632   -2.0309    1.5217 C   0  0  0  0  0  0
   -0.6880   -0.5538    1.3781 C   0  0  0  0  0  0
   -0.1232    0.1401    0.0980 C   0  0  1  0  0  0
   -0.7637   -0.6079   -1.1089 C   0  0  0  0  0  0
    1.3547    0.0643    0.0223 N   0  0  0  0  0  0
    2.2451    0.5944    0.8845 C   0  0  0  0  0  0
    3.6830    0.3217    0.5369 C   0  0  0  0  0  0
    1.9546    1.2793    1.8650 O   0  0  0  0  0  0
    4.3939    1.2075   -0.2974 C   0  0  0  0  0  0
    5.7265    0.9487   -0.6200 C   0  0  0  0  0  0
    6.3737   -0.1862   -0.1232 C   0  0  0  0  0  0
    5.6719   -1.0637    0.7078 C   0  0  0  0  0  0
    4.3398   -0.8180    1.0414 C   0  0  0  0  0  0
    3.5549   -1.9579    2.0853 Cl  0  0  0  0  0  0
    7.7215   -0.4430   -0.4555 N   0  0  0  0  0  0
   -0.3086   -6.3057   -4.7353 C   0  0  0  0  0  0
    3.6723    2.6391   -0.9603 Cl  0  0  0  0  0  0
    8.7164    0.4499   -0.7903 C   0  0  0  0  0  0
    9.8550   -0.1477   -1.0378 N   0  0  0  0  0  0
    9.6361   -1.5110   -0.8692 N   0  0  0  0  0  0
    8.3797   -1.6516   -0.5281 C   0  0  0  0  0  0
    0.1140   -5.2263    0.8524 C   0  0  0  0  0  0
   -2.0189    1.6310    1.5851 H   0  0  0  0  0  0
   -2.6718    3.9541    1.2997 H   0  0  0  0  0  0
   -1.6363    5.3370   -0.4635 H   0  0  0  0  0  0
    0.0694    4.3682   -1.9654 H   0  0  0  0  0  0
    0.7467    2.0261   -1.7065 H   0  0  0  0  0  0
   -0.0349   -6.3250   -2.0378 H   0  0  0  0  0  0
   -0.8533   -1.7407   -3.8612 H   0  0  0  0  0  0
   -0.7370   -3.6951   -5.3491 H   0  0  0  0  0  0
   -0.8990   -2.5268    2.2559 H   0  0  0  0  0  0
    0.7502   -2.0773    1.9162 H   0  0  0  0  0  0
   -1.7790   -0.5425    1.3466 H   0  0  0  0  0  0
   -0.4145   -0.0046    2.2802 H   0  0  0  0  0  0
   -0.3718   -0.2321   -2.0558 H   0  0  0  0  0  0
   -1.8449   -0.4595   -1.1343 H   0  0  0  0  0  0
    1.7055   -0.6887   -0.5516 H   0  0  0  0  0  0
    6.2509    1.6369   -1.2673 H   0  0  0  0  0  0
    6.1574   -1.9414    1.1097 H   0  0  0  0  0  0
   -0.3904   -6.0060   -5.7809 H   0  0  0  0  0  0
   -1.1071   -7.0142   -4.5131 H   0  0  0  0  0  0
    0.6384   -6.8312   -4.6076 H   0  0  0  0  0  0
    8.5244    1.5123   -0.8198 H   0  0  0  0  0  0
    7.8650   -2.5794   -0.3256 H   0  0  0  0  0  0
    0.1806   -4.8814    1.8845 H   0  0  0  0  0  0
    1.0518   -5.7341    0.6265 H   0  0  0  0  0  0
   -0.6746   -5.9782    0.8172 H   0  0  0  0  0  0
  1  2  2  0  0  0
  1  6  1  0  0  0
  1 18  1  0  0  0
  2  3  1  0  0  0
  2 38  1  0  0  0
  3  4  2  0  0  0
  3 39  1  0  0  0
  4  5  1  0  0  0
  4 40  1  0  0  0
  5  6  2  0  0  0
  5 41  1  0  0  0
  6 42  1  0  0  0
  7  8  2  0  0  0
  7 10  1  0  0  0
  7 31  1  0  0  0
  8 12  1  0  0  0
  8 43  1  0  0  0
  9 11  1  0  0  0
  9 10  2  0  0  0
  9 44  1  0  0  0
 10 45  1  0  0  0
 11 12  2  0  0  0
 11 14  1  0  0  0
 12 13  1  0  0  0
 13 15  2  0  0  0
 13 37  1  0  0  0
 14 15  1  0  0  0
 14 19  1  0  0  0
 15 16  1  0  0  0
 16 17  1  0  0  0
 16 46  1  0  0  0
 16 47  1  0  0  0
 17 18  1  0  0  0
 17 48  1  0  0  0
 17 49  1  0  0  0
 18 19  1  0  0  0
 18 20  1  0  0  0
 19 50  1  0  0  0
 19 51  1  0  0  0
 20 21  1  0  0  0
 20 52  1  0  0  0
 21 22  1  0  0  0
 21 23  2  0  0  0
 22 24  2  0  0  0
 22 28  1  0  0  0
 24 25  1  0  0  0
 24 32  1  0  0  0
 25 26  2  0  0  0
 25 53  1  0  0  0
 26 27  1  0  0  0
 26 30  1  0  0  0
 27 28  2  0  0  0
 27 54  1  0  0  0
 28 29  1  0  0  0
 30 33  1  0  0  0
 30 36  1  0  0  0
 31 55  1  0  0  0
 31 56  1  0  0  0
 31 57  1  0  0  0
 33 34  2  0  0  0
 33 58  1  0  0  0
 34 35  1  0  0  0
 35 36  2  0  0  0
 36 59  1  0  0  0
 37 60  1  0  0  0
 37 61  1  0  0  0
 37 62  1  0  0  0
M  END
> <chembl_id>
CHEMBL3628957

> <chembl_pref_name>
None

> <i_m_ct_stereo_status>
1

> <s_m_source_file>
sdf/actives_sanitized.sdf

> <i_m_source_file_index>
125

> <i_lp_mmshare_version>
49012

> <i_f3d_flags>
0

> <s_epik_input>
W2NIXTFbY0hdYyhbQ0gzXSlbY0hdYyhjMTIpYyhbQ0gzXSljM24yW0NIMl1bQ0BdKFtDSDJdW0NIMl0zKShjNFtjSF1bY0hdW2NIXVtjSF1bY0hdNClbTkhdQyg9TyljNWMoQ2wpW2NIXWMoW2NIXWM1Q2wpLW42W2NIXW5uW2NIXTY=

> <s_epik_cmdline>
J2VwaWtfcHl0aG9uJywgJy1waHQnLCAnMC41JywgJy1waCcsICc3LjUnLCAnLW50JywgJy1tYScsICcyMDAnLCAnLWltYWUnLCAnPGluZmlsZS5tYWU+JywgJy1vbWFlJywgJzxvdXRmaWxlLm1hZT4n

> <r_lp_tautomer_probability>
1

> <r_epik_Ionization_Penalty>
  0.0002

> <r_epik_Ionization_Penalty_Charging>
  0.0000

> <r_epik_Ionization_Penalty_Neutral>
  0.0002

> <r_epik_State_Penalty>
 -0.0000

> <r_epik_Charging_Adjusted_Penalty>
0

> <i_epik_Tot_Q>
0

> <i_epik_Tot_abs_Q>
0

> <s_lp_Force_Field>
OPLS3e

> <r_lp_Energy>
46.763267

> <b_lp_Chiralities_Consistent>
1

> <s_lp_Variant>
sdf/actives_sanitized.sdf:125-1

$$$$
sdf/actives_sanitized.sdf:126
                    3D
 Schrodinger Suite 2020-1.
 63 68  0  0  1  0            999 V2000
   -0.4098    1.5644    0.0764 C   0  0  0  0  0  0
   -1.3466    2.1600   -0.7839 C   0  0  0  0  0  0
   -1.6683    3.5095   -0.6669 C   0  0  0  0  0  0
   -1.0662    4.2814    0.3212 C   0  0  0  0  0  0
   -0.1494    3.7119    1.1980 C   0  0  0  0  0  0
    0.1695    2.3627    1.0794 C   0  0  0  0  0  0
   -5.3227   -0.6554   -3.5735 C   0  0  0  0  0  0
   -5.3456   -1.2669   -2.3201 C   0  0  0  0  0  0
   -2.9421   -0.1883   -3.3706 C   0  0  0  0  0  0
   -4.1380   -0.1282   -4.0815 C   0  0  0  0  0  0
   -2.9720   -0.7971   -2.1082 C   0  0  0  0  0  0
   -4.1646   -1.3495   -1.5544 C   0  0  0  0  0  0
   -3.8356   -1.9046   -0.2553 C   0  0  0  0  0  0
   -1.9672   -1.0072   -1.1858 N   0  0  0  0  0  0
   -2.4666   -1.6631   -0.0785 C   0  0  0  0  0  0
   -1.4626   -1.9492    1.0357 C   0  0  0  0  0  0
   -0.6665   -0.6449    1.2833 C   0  0  0  0  0  0
   -0.0465    0.0523    0.0043 C   0  0  1  0  0  0
   -0.5451   -0.6673   -1.3100 C   0  0  0  0  0  0
    1.4312    0.0121    0.0178 N   0  0  0  0  0  0
    2.2407   -1.0539    0.1688 C   0  0  0  0  0  0
    3.7053   -0.7241    0.1001 C   0  0  0  0  0  0
    1.8651   -2.2082    0.3698 O   0  0  0  0  0  0
    4.4048   -0.3436    1.2622 C   0  0  0  0  0  0
    5.7628   -0.0322    1.1900 C   0  0  0  0  0  0
    6.4442   -0.0915   -0.0290 C   0  0  0  0  0  0
    5.7520   -0.4712   -1.1827 C   0  0  0  0  0  0
    4.3940   -0.7868   -1.1268 C   0  0  0  0  0  0
    3.6113   -1.2452   -2.6058 Cl  0  0  0  0  0  0
    7.8163    0.2314   -0.0948 N   0  0  0  0  0  0
   -6.6026   -0.5752   -4.3861 C   0  0  0  0  0  0
    3.6349   -0.2341    2.8133 Cl  0  0  0  0  0  0
    8.7815    0.1121    0.8813 C   0  0  0  0  0  0
    9.9570    0.5121    0.4655 N   0  0  0  0  0  0
    9.7954    0.9278   -0.8522 N   0  0  0  0  0  0
    8.5329    0.7501   -1.1511 C   0  0  0  0  0  0
   -4.6679   -2.5963    0.7107 C   0  0  0  0  0  0
   -5.9796   -2.5632    0.4658 N   0  0  0  0  0  0
   -4.2131   -3.1786    1.6930 O   0  0  0  0  0  0
   -1.8362    1.6022   -1.5627 H   0  0  0  0  0  0
   -2.3842    3.9555   -1.3415 H   0  0  0  0  0  0
   -1.3162    5.3282    0.4116 H   0  0  0  0  0  0
    0.3094    4.3122    1.9699 H   0  0  0  0  0  0
    0.8734    1.9336    1.7780 H   0  0  0  0  0  0
   -6.2745   -1.6750   -1.9528 H   0  0  0  0  0  0
   -2.0360    0.2253   -3.7877 H   0  0  0  0  0  0
   -4.1367    0.3403   -5.0553 H   0  0  0  0  0  0
   -1.9345   -2.2583    1.9665 H   0  0  0  0  0  0
   -0.7963   -2.7639    0.7504 H   0  0  0  0  0  0
   -1.3433    0.0393    1.7997 H   0  0  0  0  0  0
    0.1046   -0.8538    2.0263 H   0  0  0  0  0  0
   -0.0122   -1.6095   -1.4462 H   0  0  0  0  0  0
   -0.3545   -0.0689   -2.2012 H   0  0  0  0  0  0
    1.8684    0.8368   -0.3667 H   0  0  0  0  0  0
    6.2799    0.2663    2.0907 H   0  0  0  0  0  0
    6.2645   -0.5293   -2.1323 H   0  0  0  0  0  0
   -6.4411   -0.1394   -5.3729 H   0  0  0  0  0  0
   -7.3465    0.0231   -3.8591 H   0  0  0  0  0  0
   -7.0234   -1.5721   -4.5224 H   0  0  0  0  0  0
    8.5405   -0.2826    1.8573 H   0  0  0  0  0  0
    8.0530    0.9749   -2.0923 H   0  0  0  0  0  0
   -6.3364   -2.0684   -0.3378 H   0  0  0  0  0  0
   -6.6219   -3.0216    1.0952 H   0  0  0  0  0  0
  1  2  2  0  0  0
  1  6  1  0  0  0
  1 18  1  0  0  0
  2  3  1  0  0  0
  2 40  1  0  0  0
  3  4  2  0  0  0
  3 41  1  0  0  0
  4  5  1  0  0  0
  4 42  1  0  0  0
  5  6  2  0  0  0
  5 43  1  0  0  0
  6 44  1  0  0  0
  7  8  2  0  0  0
  7 10  1  0  0  0
  7 31  1  0  0  0
  8 12  1  0  0  0
  8 45  1  0  0  0
  9 11  1  0  0  0
  9 10  2  0  0  0
  9 46  1  0  0  0
 10 47  1  0  0  0
 11 12  2  0  0  0
 11 14  1  0  0  0
 12 13  1  0  0  0
 13 15  2  0  0  0
 13 37  1  0  0  0
 14 15  1  0  0  0
 14 19  1  0  0  0
 15 16  1  0  0  0
 16 17  1  0  0  0
 16 48  1  0  0  0
 16 49  1  0  0  0
 17 18  1  0  0  0
 17 50  1  0  0  0
 17 51  1  0  0  0
 18 19  1  0  0  0
 18 20  1  0  0  0
 19 52  1  0  0  0
 19 53  1  0  0  0
 20 21  1  0  0  0
 20 54  1  0  0  0
 21 22  1  0  0  0
 21 23  2  0  0  0
 22 24  2  0  0  0
 22 28  1  0  0  0
 24 25  1  0  0  0
 24 32  1  0  0  0
 25 26  2  0  0  0
 25 55  1  0  0  0
 26 27  1  0  0  0
 26 30  1  0  0  0
 27 28  2  0  0  0
 27 56  1  0  0  0
 28 29  1  0  0  0
 30 33  1  0  0  0
 30 36  1  0  0  0
 31 57  1  0  0  0
 31 58  1  0  0  0
 31 59  1  0  0  0
 33 34  2  0  0  0
 33 60  1  0  0  0
 34 35  1  0  0  0
 35 36  2  0  0  0
 36 61  1  0  0  0
 37 38  1  0  0  0
 37 39  2  0  0  0
 38 62  1  0  0  0
 38 63  1  0  0  0
M  END
> <chembl_id>
CHEMBL3628961

> <chembl_pref_name>
None

> <i_m_ct_stereo_status>
1

> <s_m_source_file>
sdf/actives_sanitized.sdf

> <i_m_source_file_index>
126

> <i_lp_mmshare_version>
49012

> <i_f3d_flags>
0

> <s_epik_input>
W2NIXTFbY0hdYyhbQ0gzXSlbY0hdYyhjMTIpYyhDKD1PKVtOSDJdKWMzbjJbQ0gyXVtDQF0oW0NIMl1bQ0gyXTMpKGM0W2NIXVtjSF1bY0hdW2NIXVtjSF00KVtOSF1DKD1PKWM1YyhDbClbY0hdYyhbY0hdYzVDbCktbjZbY0hdbm5bY0hdNg==

> <s_epik_cmdline>
J2VwaWtfcHl0aG9uJywgJy1waHQnLCAnMC41JywgJy1waCcsICc3LjUnLCAnLW50JywgJy1tYScsICcyMDAnLCAnLWltYWUnLCAnPGluZmlsZS5tYWU+JywgJy1vbWFlJywgJzxvdXRmaWxlLm1hZT4n

> <r_lp_tautomer_probability>
1

> <r_epik_Ionization_Penalty>
  0.0002

> <r_epik_Ionization_Penalty_Charging>
  0.0000

> <r_epik_Ionization_Penalty_Neutral>
  0.0002

> <r_epik_State_Penalty>
 -0.0000

> <r_epik_Charging_Adjusted_Penalty>
0

> <i_epik_Tot_Q>
0

> <i_epik_Tot_abs_Q>
0

> <s_lp_Force_Field>
OPLS3e

> <r_lp_Energy>
48.276135

> <b_lp_Chiralities_Consistent>
1

> <s_lp_Variant>
sdf/actives_sanitized.sdf:126-1

$$$$
sdf/actives_sanitized.sdf:127
                    3D
 Schrodinger Suite 2020-1.
 57 61  0  0  1  0            999 V2000
   -1.6192   -2.9201   -5.0282 C   0  0  0  0  0  0
   -2.8108   -3.1969   -4.3548 C   0  0  0  0  0  0
   -3.0567   -2.7165   -3.0667 C   0  0  0  0  0  0
   -0.6049   -2.1473   -4.4511 C   0  0  0  0  0  0
   -4.0138   -4.1582   -5.1345 Cl  0  0  0  0  0  0
   -0.8308   -1.6541   -3.1528 C   0  0  0  0  0  0
   -2.0484   -1.9449   -2.4855 C   0  0  0  0  0  0
   -1.9211   -1.3103   -1.2720 N   0  0  0  0  0  0
   -0.6879   -0.7007   -1.2517 C   0  0  0  0  0  0
   -0.0161   -0.8812   -2.3648 N   0  0  0  0  0  0
   -0.2151    0.1334   -0.0661 C   0  0  1  0  0  0
    1.2759   -0.1383    0.2713 C   0  0  0  0  0  0
    1.7654    0.5619    1.4623 N   0  0  0  0  0  0
    2.5473    1.6564    1.4539 C   0  0  0  0  0  0
    2.9803    2.1306    2.8140 C   0  0  0  0  0  0
    2.9181    2.2469    0.4393 O   0  0  0  0  0  0
   -0.5274    1.6195   -0.2725 C   0  0  0  0  0  0
    0.0890    2.3450   -1.3008 C   0  0  0  0  0  0
   -0.1959    3.6984   -1.4807 C   0  0  0  0  0  0
   -1.1048    4.3377   -0.6385 C   0  0  0  0  0  0
   -1.7270    3.6237    0.3850 C   0  0  0  0  0  0
   -1.4377    2.2712    0.5689 C   0  0  0  0  0  0
    4.1211    1.5805    3.4306 C   0  0  0  0  0  0
    4.5274    2.0356    4.6852 C   0  0  0  0  0  0
    3.8174    3.0412    5.3495 C   0  0  0  0  0  0
    2.6831    3.5865    4.7355 C   0  0  0  0  0  0
    2.2633    3.1422    3.4814 C   0  0  0  0  0  0
    0.8521    3.8834    2.7997 Cl  0  0  0  0  0  0
    4.2495    3.4972    6.6202 N   0  0  0  0  0  0
    5.0899    2.8998    7.5267 C   0  0  0  0  0  0
    5.2456    3.6526    8.5842 N   0  0  0  0  0  0
    4.4836    4.6970    8.3001 C   0  0  0  0  0  0
    3.8617    4.6723    7.1397 N   0  0  0  0  0  0
    5.0709    0.3362    2.6821 Cl  0  0  0  0  0  0
    4.3596    5.8709    9.2457 C   0  0  0  0  0  0
   -2.6072    4.2434    1.2033 F   0  0  0  0  0  0
    0.6692   -1.8769   -5.2327 C   0  0  0  0  0  0
   -1.4823   -3.3165   -6.0243 H   0  0  0  0  0  0
   -3.9814   -2.9339   -2.5524 H   0  0  0  0  0  0
   -2.5773   -1.2673   -0.5058 H   0  0  0  0  0  0
   -0.7758   -0.1908    0.8133 H   0  0  0  0  0  0
    1.4132   -1.2053    0.4519 H   0  0  0  0  0  0
    1.9055    0.0844   -0.5935 H   0  0  0  0  0  0
    1.5388    0.1422    2.3520 H   0  0  0  0  0  0
    0.7968    1.8625   -1.9592 H   0  0  0  0  0  0
    0.2885    4.2509   -2.2724 H   0  0  0  0  0  0
   -1.3248    5.3857   -0.7782 H   0  0  0  0  0  0
   -1.9244    1.7334    1.3693 H   0  0  0  0  0  0
    5.4114    1.6028    5.1297 H   0  0  0  0  0  0
    2.1153    4.3631    5.2280 H   0  0  0  0  0  0
    5.5325    1.9328    7.3401 H   0  0  0  0  0  0
    3.9286    6.7610    8.7856 H   0  0  0  0  0  0
    5.3476    6.1740    9.5940 H   0  0  0  0  0  0
    3.8206    5.6118   10.1575 H   0  0  0  0  0  0
    1.5286   -2.2824   -4.6980 H   0  0  0  0  0  0
    0.8233   -0.8021   -5.3341 H   0  0  0  0  0  0
    0.6466   -2.3141   -6.2318 H   0  0  0  0  0  0
  1  2  2  0  0  0
  1  4  1  0  0  0
  1 38  1  0  0  0
  2  3  1  0  0  0
  2  5  1  0  0  0
  3  7  2  0  0  0
  3 39  1  0  0  0
  4  6  2  0  0  0
  4 37  1  0  0  0
  6  7  1  0  0  0
  6 10  1  0  0  0
  7  8  1  0  0  0
  8  9  1  0  0  0
  8 40  1  0  0  0
  9 10  2  0  0  0
  9 11  1  0  0  0
 11 12  1  0  0  0
 11 17  1  0  0  0
 11 41  1  0  0  0
 12 13  1  0  0  0
 12 42  1  0  0  0
 12 43  1  0  0  0
 13 14  1  0  0  0
 13 44  1  0  0  0
 14 15  1  0  0  0
 14 16  2  0  0  0
 15 23  2  0  0  0
 15 27  1  0  0  0
 17 18  2  0  0  0
 17 22  1  0  0  0
 18 19  1  0  0  0
 18 45  1  0  0  0
 19 20  2  0  0  0
 19 46  1  0  0  0
 20 21  1  0  0  0
 20 47  1  0  0  0
 21 22  2  0  0  0
 21 36  1  0  0  0
 22 48  1  0  0  0
 23 24  1  0  0  0
 23 34  1  0  0  0
 24 25  2  0  0  0
 24 49  1  0  0  0
 25 26  1  0  0  0
 25 29  1  0  0  0
 26 27  2  0  0  0
 26 50  1  0  0  0
 27 28  1  0  0  0
 29 30  1  0  0  0
 29 33  1  0  0  0
 30 31  2  0  0  0
 30 51  1  0  0  0
 31 32  1  0  0  0
 32 33  2  0  0  0
 32 35  1  0  0  0
 35 52  1  0  0  0
 35 53  1  0  0  0
 35 54  1  0  0  0
 37 55  1  0  0  0
 37 56  1  0  0  0
 37 57  1  0  0  0
M  END
> <chembl_id>
CHEMBL3627896

> <chembl_pref_name>
None

> <i_m_ct_stereo_status>
1

> <s_m_source_file>
sdf/actives_sanitized.sdf

> <i_m_source_file_index>
127

> <i_lp_mmshare_version>
49012

> <i_f3d_flags>
0

> <s_epik_input>
W0NIM11jMVtjSF1jKENsKVtjSF1jKGMxMilbbkhdYyhuMilbQ0BIXShjM1tjSF1bY0hdW2NIXWMoRilbY0hdMylbQ0gyXVtOSF1DKD1PKWM0YyhDbClbY0hdYyhbY0hdYzRDbCktbjVbY0hdbmMobjUpW0NIM10=

> <s_epik_cmdline>
J2VwaWtfcHl0aG9uJywgJy1waHQnLCAnMC41JywgJy1waCcsICc3LjUnLCAnLW50JywgJy1tYScsICcyMDAnLCAnLWltYWUnLCAnPGluZmlsZS5tYWU+JywgJy1vbWFlJywgJzxvdXRmaWxlLm1hZT4n

> <r_lp_tautomer_probability>
1

> <r_epik_Ionization_Penalty>
  0.0089

> <r_epik_Ionization_Penalty_Charging>
  0.0000

> <r_epik_Ionization_Penalty_Neutral>
  0.0089

> <r_epik_State_Penalty>
 -0.0000

> <r_epik_Charging_Adjusted_Penalty>
0

> <i_epik_Tot_Q>
0

> <i_epik_Tot_abs_Q>
0

> <s_lp_Force_Field>
OPLS3e

> <r_lp_Energy>
29.624959

> <b_lp_Chiralities_Consistent>
1

> <s_lp_Variant>
sdf/actives_sanitized.sdf:127-1

$$$$
sdf/actives_sanitized.sdf:128
                    3D
 Schrodinger Suite 2020-1.
 65 70  0  0  1  0            999 V2000
   -0.5817    1.4937    0.2274 C   0  0  0  0  0  0
   -1.5662    1.9836    1.1027 C   0  0  0  0  0  0
   -1.9621    3.3176    1.0544 C   0  0  0  0  0  0
   -1.3893    4.1764    0.1221 C   0  0  0  0  0  0
   -0.4277    3.7102   -0.7677 C   0  0  0  0  0  0
   -0.0339    2.3766   -0.7188 C   0  0  0  0  0  0
   -0.3811   -4.9056   -4.0840 C   0  0  0  0  0  0
   -0.1853   -5.2367   -2.7431 C   0  0  0  0  0  0
   -0.7210   -2.5627   -3.5196 C   0  0  0  0  0  0
   -0.6476   -3.5905   -4.4561 C   0  0  0  0  0  0
   -0.5187   -2.8996   -2.1738 C   0  0  0  0  0  0
   -0.2625   -4.2373   -1.7526 C   0  0  0  0  0  0
   -0.1303   -4.2176   -0.3137 C   0  0  0  0  0  0
   -0.5114   -2.1046   -1.0446 N   0  0  0  0  0  0
   -0.3035   -2.8933    0.0791 C   0  0  0  0  0  0
   -0.2360   -2.2741    1.4770 C   0  0  0  0  0  0
   -0.6824   -0.7969    1.4556 C   0  0  0  0  0  0
   -0.1364    0.0002    0.2299 C   0  0  1  0  0  0
   -0.7840   -0.6578   -1.0237 C   0  0  0  0  0  0
    1.3414   -0.0560    0.1340 N   0  0  0  0  0  0
    2.2358    0.4124    1.0270 C   0  0  0  0  0  0
    3.6725    0.1862    0.6426 C   0  0  0  0  0  0
    1.9492    1.0135    2.0623 O   0  0  0  0  0  0
    4.3465   -0.9860    1.0389 C   0  0  0  0  0  0
    5.6777   -1.1861    0.6724 C   0  0  0  0  0  0
    6.3610   -0.2317   -0.0859 C   0  0  0  0  0  0
    5.6964    0.9344   -0.4759 C   0  0  0  0  0  0
    4.3648    1.1490   -0.1186 C   0  0  0  0  0  0
    3.6212    2.6249   -0.6466 Cl  0  0  0  0  0  0
    7.7077   -0.4437   -0.4529 N   0  0  0  0  0  0
   -0.3040   -5.9951   -5.1387 C   0  0  0  0  0  0
    3.5849   -2.2226    1.9857 Cl  0  0  0  0  0  0
    8.3770   -1.6342   -0.6371 C   0  0  0  0  0  0
    9.6279   -1.4509   -0.9783 N   0  0  0  0  0  0
    9.8312   -0.0757   -1.0298 N   0  0  0  0  0  0
    8.6897    0.4857   -0.7189 C   0  0  0  0  0  0
    0.1333   -5.3160    0.6106 C   0  0  0  0  0  0
    0.0924   -6.6459    0.3859 C   0  0  0  0  0  0
    0.4089   -7.7113    1.4539 C   0  0  0  0  0  0
    0.6438   -7.2868    2.6082 O   0  5  0  0  0  0
    0.3849   -8.8827    1.0168 O   0  0  0  0  0  0
   -2.0386    1.3515    1.8378 H   0  0  0  0  0  0
   -2.7137    3.6843    1.7379 H   0  0  0  0  0  0
   -1.6973    5.2110    0.0854 H   0  0  0  0  0  0
    0.0088    4.3784   -1.4953 H   0  0  0  0  0  0
    0.7060    2.0291   -1.4251 H   0  0  0  0  0  0
    0.0295   -6.2613   -2.4894 H   0  0  0  0  0  0
   -0.9222   -1.5492   -3.8334 H   0  0  0  0  0  0
   -0.7977   -3.3503   -5.4989 H   0  0  0  0  0  0
   -0.8536   -2.8333    2.1807 H   0  0  0  0  0  0
    0.7835   -2.3360    1.8534 H   0  0  0  0  0  0
   -1.7738   -0.7984    1.4326 H   0  0  0  0  0  0
   -0.4090   -0.3163    2.3959 H   0  0  0  0  0  0
   -0.4054   -0.2048   -1.9415 H   0  0  0  0  0  0
   -1.8666   -0.5177   -1.0269 H   0  0  0  0  0  0
    1.6920   -0.7607   -0.4983 H   0  0  0  0  0  0
    6.1769   -2.0899    0.9911 H   0  0  0  0  0  0
    6.2063    1.6817   -1.0668 H   0  0  0  0  0  0
   -0.5118   -5.6180   -6.1409 H   0  0  0  0  0  0
   -1.0240   -6.7834   -4.9159 H   0  0  0  0  0  0
    0.6870   -6.4501   -5.1383 H   0  0  0  0  0  0
    7.8740   -2.5815   -0.5101 H   0  0  0  0  0  0
    8.4868    1.5446   -0.6531 H   0  0  0  0  0  0
    0.3942   -4.9737    1.6025 H   0  0  0  0  0  0
   -0.1834   -7.0083   -0.5889 H   0  0  0  0  0  0
  1  2  2  0  0  0
  1  6  1  0  0  0
  1 18  1  0  0  0
  2  3  1  0  0  0
  2 42  1  0  0  0
  3  4  2  0  0  0
  3 43  1  0  0  0
  4  5  1  0  0  0
  4 44  1  0  0  0
  5  6  2  0  0  0
  5 45  1  0  0  0
  6 46  1  0  0  0
  7  8  2  0  0  0
  7 10  1  0  0  0
  7 31  1  0  0  0
  8 12  1  0  0  0
  8 47  1  0  0  0
  9 11  1  0  0  0
  9 10  2  0  0  0
  9 48  1  0  0  0
 10 49  1  0  0  0
 11 12  2  0  0  0
 11 14  1  0  0  0
 12 13  1  0  0  0
 13 15  2  0  0  0
 13 37  1  0  0  0
 14 15  1  0  0  0
 14 19  1  0  0  0
 15 16  1  0  0  0
 16 17  1  0  0  0
 16 50  1  0  0  0
 16 51  1  0  0  0
 17 18  1  0  0  0
 17 52  1  0  0  0
 17 53  1  0  0  0
 18 19  1  0  0  0
 18 20  1  0  0  0
 19 54  1  0  0  0
 19 55  1  0  0  0
 20 21  1  0  0  0
 20 56  1  0  0  0
 21 22  1  0  0  0
 21 23  2  0  0  0
 22 24  2  0  0  0
 22 28  1  0  0  0
 24 25  1  0  0  0
 24 32  1  0  0  0
 25 26  2  0  0  0
 25 57  1  0  0  0
 26 27  1  0  0  0
 26 30  1  0  0  0
 27 28  2  0  0  0
 27 58  1  0  0  0
 28 29  1  0  0  0
 30 33  1  0  0  0
 30 36  1  0  0  0
 31 59  1  0  0  0
 31 60  1  0  0  0
 31 61  1  0  0  0
 33 34  2  0  0  0
 33 62  1  0  0  0
 34 35  1  0  0  0
 35 36  2  0  0  0
 36 63  1  0  0  0
 37 38  2  0  0  0
 37 64  1  0  0  0
 38 39  1  0  0  0
 38 65  1  0  0  0
 39 40  1  0  0  0
 39 41  2  0  0  0
M  CHG  1  40  -1
M  END
> <chembl_id>
CHEMBL3628964

> <chembl_pref_name>
None

> <i_m_ct_stereo_status>
1

> <s_m_source_file>
sdf/actives_sanitized.sdf

> <i_m_source_file_index>
128

> <i_lp_mmshare_version>
49012

> <i_f3d_flags>
0

> <s_epik_input>
W2NIXTFbY0hdYyhbQ0gzXSlbY0hdYyhjMTIpYygvW0NIXT1bQ0hdL0MoPU8pW09IXSljM24yW0NIMl1bQ0BdKFtDSDJdW0NIMl0zKShjNFtjSF1bY0hdW2NIXVtjSF1bY0hdNClbTkhdQyg9TyljNWMoQ2wpW2NIXWMoW2NIXWM1Q2wpLW42W2NIXW5uW2NIXTY=

> <s_epik_cmdline>
J2VwaWtfcHl0aG9uJywgJy1waHQnLCAnMC41JywgJy1waCcsICc3LjUnLCAnLW50JywgJy1tYScsICcyMDAnLCAnLWltYWUnLCAnPGluZmlsZS5tYWU+JywgJy1vbWFlJywgJzxvdXRmaWxlLm1hZT4n

> <r_lp_tautomer_probability>
1

> <r_epik_Ionization_Penalty>
  0.0142

> <r_epik_Ionization_Penalty_Charging>
  0.0140

> <r_epik_Ionization_Penalty_Neutral>
  0.0002

> <r_epik_State_Penalty>
  0.0109

> <r_epik_Charging_Adjusted_Penalty>
0.0249738336968946

> <i_epik_Tot_Q>
-1

> <i_epik_Tot_abs_Q>
1

> <s_lp_Force_Field>
OPLS3e

> <r_lp_Energy>
52.557984

> <b_lp_Chiralities_Consistent>
1

> <s_lp_Variant>
sdf/actives_sanitized.sdf:128-1

$$$$
sdf/actives_sanitized.sdf:129
                    3D
 Schrodinger Suite 2020-1.
 57 60  0  0  1  0            999 V2000
   -2.7237   -0.7979   -0.0832 C   0  0  0  0  0  0
   -4.0116   -1.3214   -0.0671 C   0  0  0  0  0  0
   -4.4864   -2.0305    1.0315 C   0  0  0  0  0  0
   -1.8591   -0.9642    1.0089 C   0  0  0  0  0  0
   -2.3073   -1.6796    2.1381 C   0  0  0  0  0  0
   -3.6317   -2.2067    2.1285 C   0  0  0  0  0  0
   -3.9988   -3.0580    3.6192 S   0  0  0  0  0  0
   -2.3931   -2.7195    4.2525 C   0  0  0  0  0  0
   -1.6328   -1.9837    3.3559 C   0  0  0  0  0  0
   -2.0164   -3.1493    5.5108 C   0  0  0  0  0  0
   -2.4571   -4.3193    5.9552 N   0  0  0  0  0  0
   -1.2156   -2.3762    6.2331 N   0  3  0  0  0  0
   -0.5622   -0.4885    1.0960 O   0  0  0  0  0  0
   -0.0090    0.3143    0.0459 C   0  0  2  0  0  0
    1.5068    0.4136    0.2855 C   0  0  0  0  0  0
   -0.6514    1.7032    0.0052 C   0  0  0  0  0  0
   -1.0386    2.3454    1.1872 C   0  0  0  0  0  0
   -1.6266    3.6063    1.1357 C   0  0  0  0  0  0
   -1.8264    4.2243   -0.0965 C   0  0  0  0  0  0
   -1.4425    3.5936   -1.2777 C   0  0  0  0  0  0
   -0.8540    2.3327   -1.2268 C   0  0  0  0  0  0
    2.1131   -0.8637    0.1150 O   0  0  0  0  0  0
    3.4429   -1.0240    0.2661 C   0  0  0  0  0  0
    3.7558   -2.3568    0.0156 N   0  0  0  0  0  0
    4.2228   -0.1161    0.5632 O   0  0  0  0  0  0
    5.0072   -2.9952    0.0476 C   0  0  0  0  0  0
    5.0731   -4.2600   -0.5388 C   0  0  0  0  0  0
    6.2722   -4.9666   -0.5463 C   0  0  0  0  0  0
    7.4194   -4.4256    0.0342 C   0  0  0  0  0  0
    7.3507   -3.1575    0.6317 C   0  0  0  0  0  0
    6.1530   -2.4472    0.6421 C   0  0  0  0  0  0
    8.5626   -5.1998   -0.0221 O   0  0  0  0  0  0
    9.7678   -4.7018    0.5492 C   0  0  0  0  0  0
   -2.4092   -0.2574   -0.9626 H   0  0  0  0  0  0
   -4.6540   -1.1751   -0.9232 H   0  0  0  0  0  0
   -5.4890   -2.4332    1.0334 H   0  0  0  0  0  0
   -0.6183   -1.6710    3.5561 H   0  0  0  0  0  0
   -2.1883   -4.6439    6.8723 H   0  0  0  0  0  0
   -3.0622   -4.8794    5.3723 H   0  0  0  0  0  0
   -0.9288   -2.6701    7.1553 H   0  0  0  0  0  0
   -0.1654   -0.1903   -0.9103 H   0  0  0  0  0  0
    1.7065    0.7962    1.2880 H   0  0  0  0  0  0
    1.9477    1.1159   -0.4244 H   0  0  0  0  0  0
   -0.8845    1.8707    2.1453 H   0  0  0  0  0  0
   -1.9254    4.1034    2.0469 H   0  0  0  0  0  0
   -2.2818    5.2028   -0.1366 H   0  0  0  0  0  0
   -1.5998    4.0810   -2.2285 H   0  0  0  0  0  0
   -0.5574    1.8475   -2.1455 H   0  0  0  0  0  0
    2.9848   -2.9417   -0.2716 H   0  0  0  0  0  0
    4.1985   -4.7023   -0.9950 H   0  0  0  0  0  0
    6.3112   -5.9431   -1.0069 H   0  0  0  0  0  0
    8.2151   -2.7078    1.0962 H   0  0  0  0  0  0
    6.1410   -1.4831    1.1248 H   0  0  0  0  0  0
   10.5602   -5.4382    0.4163 H   0  0  0  0  0  0
    9.6596   -4.5234    1.6201 H   0  0  0  0  0  0
   10.0895   -3.7795    0.0629 H   0  0  0  0  0  0
   -0.9064   -1.4902    5.8608 H   0  0  0  0  0  0
  1  4  2  0  0  0
  1  2  1  0  0  0
  1 34  1  0  0  0
  2  3  2  0  0  0
  2 35  1  0  0  0
  3  6  1  0  0  0
  3 36  1  0  0  0
  4 13  1  0  0  0
  4  5  1  0  0  0
  5  9  1  0  0  0
  5  6  2  0  0  0
  6  7  1  0  0  0
  7  8  1  0  0  0
  8  9  2  0  0  0
  8 10  1  0  0  0
  9 37  1  0  0  0
 10 11  1  0  0  0
 10 12  2  0  0  0
 11 38  1  0  0  0
 11 39  1  0  0  0
 12 40  1  0  0  0
 12 57  1  0  0  0
 13 14  1  0  0  0
 14 16  1  0  0  0
 14 15  1  0  0  0
 14 41  1  0  0  0
 15 22  1  0  0  0
 15 42  1  0  0  0
 15 43  1  0  0  0
 16 17  2  0  0  0
 16 21  1  0  0  0
 17 18  1  0  0  0
 17 44  1  0  0  0
 18 19  2  0  0  0
 18 45  1  0  0  0
 19 20  1  0  0  0
 19 46  1  0  0  0
 20 21  2  0  0  0
 20 47  1  0  0  0
 21 48  1  0  0  0
 22 23  1  0  0  0
 23 24  1  0  0  0
 23 25  2  0  0  0
 24 26  1  0  0  0
 24 49  1  0  0  0
 26 27  2  0  0  0
 26 31  1  0  0  0
 27 28  1  0  0  0
 27 50  1  0  0  0
 28 29  2  0  0  0
 28 51  1  0  0  0
 29 30  1  0  0  0
 29 32  1  0  0  0
 30 31  2  0  0  0
 30 52  1  0  0  0
 31 53  1  0  0  0
 32 33  1  0  0  0
 33 54  1  0  0  0
 33 55  1  0  0  0
 33 56  1  0  0  0
M  CHG  1  12   1
M  END
> <chembl_id>
CHEMBL596764

> <chembl_pref_name>
None

> <s_m_source_file>
sdf/actives_sanitized.sdf

> <i_m_source_file_index>
129

> <i_lp_mmshare_version>
49012

> <i_m_ct_stereo_status>
1

> <i_f3d_flags>
0

> <s_epik_input>
W0hdXE49QyhbTkgyXSlcYyhbY0hdMSlzYyhjMTIpW2NIXVtjSF1bY0hdYzJPW0NAQEhdKGMzW2NIXVtjSF1bY0hdW2NIXVtjSF0zKVtDSDJdT0MoPU8pW05IXWM0W2NIXVtjSF1jKFtjSF1bY0hdNClPW0NIM10=

> <s_epik_cmdline>
J2VwaWtfcHl0aG9uJywgJy1waHQnLCAnMC41JywgJy1waCcsICc3LjUnLCAnLW50JywgJy1tYScsICcyMDAnLCAnLWltYWUnLCAnPGluZmlsZS5tYWU+JywgJy1vbWFlJywgJzxvdXRmaWxlLm1hZT4n

> <r_lp_tautomer_probability>
1

> <r_epik_Ionization_Penalty>
  0.0095

> <r_epik_Ionization_Penalty_Charging>
  0.0095

> <r_epik_Ionization_Penalty_Neutral>
  0.0000

> <r_epik_State_Penalty>
 -0.0000

> <r_epik_Charging_Adjusted_Penalty>
0.00945881282357717

> <i_epik_Tot_Q>
1

> <i_epik_Tot_abs_Q>
1

> <s_epik_Chemistry_Notes>
This compound has an ester and may undergo hydrolysis at high or low pH. This compound has an imine and may undergo hydrolysis.

> <s_lp_Force_Field>
OPLS3e

> <r_lp_Energy>
40.252229

> <b_lp_Chiralities_Consistent>
1

> <s_lp_Variant>
sdf/actives_sanitized.sdf:129-1

$$$$
sdf/actives_sanitized.sdf:130
                    3D
 Schrodinger Suite 2020-1.
 57 60  0  0  1  0            999 V2000
   -0.9777    2.4243    1.3124 C   0  0  0  0  0  0
   -1.5322    3.7003    1.2649 C   0  0  0  0  0  0
   -1.6981    4.3351    0.0361 C   0  0  0  0  0  0
   -1.3138    3.7058   -1.1458 C   0  0  0  0  0  0
   -0.7590    2.4296   -1.0987 C   0  0  0  0  0  0
   -0.5898    1.7838    0.1299 C   0  0  0  0  0  0
    0.0196    0.3799    0.1663 C   0  0  2  0  0  0
   -0.5658   -0.4200    1.2014 O   0  0  0  0  0  0
    1.5348    0.4445    0.4204 C   0  0  0  0  0  0
    2.1152   -0.8433    0.2421 O   0  0  0  0  0  0
    3.4487   -1.0191    0.3294 C   0  0  0  0  0  0
    3.7323   -2.3618    0.1022 N   0  0  0  0  0  0
    4.2565   -0.1210    0.5788 O   0  0  0  0  0  0
    4.9875   -2.9876    0.0471 C   0  0  0  0  0  0
    5.0188   -4.3603    0.2948 C   0  0  0  0  0  0
    6.2247   -5.0529    0.2347 C   0  0  0  0  0  0
    7.4103   -4.3897   -0.0836 C   0  0  0  0  0  0
    7.3753   -3.0103   -0.3411 C   0  0  0  0  0  0
    6.1719   -2.3130   -0.2793 C   0  0  0  0  0  0
    8.5555   -5.1617   -0.1275 O   0  0  0  0  0  0
    9.7917   -4.5506   -0.4810 C   0  0  0  0  0  0
   -1.8720   -0.8654    1.0910 C   0  0  0  0  0  0
   -2.7144   -0.6729   -0.0142 C   0  0  0  0  0  0
   -4.0137   -1.1674   -0.0234 C   0  0  0  0  0  0
   -4.5233   -1.8716    1.0625 C   0  0  0  0  0  0
   -3.6923   -2.0728    2.1732 C   0  0  0  0  0  0
   -2.3561   -1.5765    2.2086 C   0  0  0  0  0  0
   -4.1044   -2.9248    3.6514 S   0  0  0  0  0  0
   -2.5075   -2.6148    4.3211 C   0  0  0  0  0  0
   -1.7104   -1.9032    3.4365 C   0  0  0  0  0  0
   -2.1577   -3.0762    5.5765 C   0  0  0  0  0  0
   -0.9067   -3.4661    5.7853 N   0  3  0  0  0  0
   -3.0750   -3.1083    6.5347 N   0  0  0  0  0  0
   -0.8488    1.9369    2.2680 H   0  0  0  0  0  0
   -1.8313    4.1960    2.1766 H   0  0  0  0  0  0
   -2.1277    5.3254   -0.0005 H   0  0  0  0  0  0
   -1.4448    4.2060   -2.0941 H   0  0  0  0  0  0
   -0.4613    1.9451   -2.0174 H   0  0  0  0  0  0
   -0.1364   -0.1116   -0.7966 H   0  0  0  0  0  0
    1.9943    1.1451   -0.2795 H   0  0  0  0  0  0
    1.7364    0.8125    1.4279 H   0  0  0  0  0  0
    2.9351   -2.9749    0.0141 H   0  0  0  0  0  0
    4.1128   -4.8973    0.5373 H   0  0  0  0  0  0
    6.2384   -6.1149    0.4318 H   0  0  0  0  0  0
    8.2700   -2.4631   -0.5965 H   0  0  0  0  0  0
    6.1780   -1.2571   -0.5033 H   0  0  0  0  0  0
   10.5800   -5.3033   -0.4755 H   0  0  0  0  0  0
   10.0727   -3.7733    0.2310 H   0  0  0  0  0  0
    9.7531   -4.1217   -1.4836 H   0  0  0  0  0  0
   -2.3737   -0.1342   -0.8850 H   0  0  0  0  0  0
   -4.6379   -1.0016   -0.8896 H   0  0  0  0  0  0
   -5.5347   -2.2512    1.0446 H   0  0  0  0  0  0
   -0.6931   -1.6143    3.6568 H   0  0  0  0  0  0
   -0.6310   -3.8071    6.6945 H   0  0  0  0  0  0
   -2.8316   -3.4436    7.4552 H   0  0  0  0  0  0
   -4.0148   -2.7969    6.3368 H   0  0  0  0  0  0
   -0.2376   -3.4282    5.0303 H   0  0  0  0  0  0
  1  2  2  0  0  0
  1  6  1  0  0  0
  1 34  1  0  0  0
  2  3  1  0  0  0
  2 35  1  0  0  0
  3  4  2  0  0  0
  3 36  1  0  0  0
  4  5  1  0  0  0
  4 37  1  0  0  0
  5  6  2  0  0  0
  5 38  1  0  0  0
  6  7  1  0  0  0
  7  8  1  0  0  0
  7  9  1  0  0  0
  7 39  1  0  0  0
  8 22  1  0  0  0
  9 10  1  0  0  0
  9 40  1  0  0  0
  9 41  1  0  0  0
 10 11  1  0  0  0
 11 12  1  0  0  0
 11 13  2  0  0  0
 12 14  1  0  0  0
 12 42  1  0  0  0
 14 15  2  0  0  0
 14 19  1  0  0  0
 15 16  1  0  0  0
 15 43  1  0  0  0
 16 17  2  0  0  0
 16 44  1  0  0  0
 17 18  1  0  0  0
 17 20  1  0  0  0
 18 19  2  0  0  0
 18 45  1  0  0  0
 19 46  1  0  0  0
 20 21  1  0  0  0
 21 47  1  0  0  0
 21 48  1  0  0  0
 21 49  1  0  0  0
 22 23  2  0  0  0
 22 27  1  0  0  0
 23 24  1  0  0  0
 23 50  1  0  0  0
 24 25  2  0  0  0
 24 51  1  0  0  0
 25 26  1  0  0  0
 25 52  1  0  0  0
 26 28  1  0  0  0
 26 27  2  0  0  0
 27 30  1  0  0  0
 28 29  1  0  0  0
 29 30  2  0  0  0
 29 31  1  0  0  0
 30 53  1  0  0  0
 31 32  2  0  0  0
 31 33  1  0  0  0
 32 54  1  0  0  0
 32 57  1  0  0  0
 33 55  1  0  0  0
 33 56  1  0  0  0
M  CHG  1  32   1
M  END
> <chembl_id>
CHEMBL604294

> <chembl_pref_name>
None

> <i_m_ct_stereo_status>
1

> <s_m_source_file>
sdf/actives_sanitized.sdf

> <i_m_source_file_index>
130

> <i_lp_mmshare_version>
49012

> <i_f3d_flags>
0

> <s_epik_input>
W0hdXE49QyhbTkgyXSlcYyhzMSlbY0hdYyhjMTIpYyhbY0hdW2NIXVtjSF0yKU9bQ0BASF0oYzNbY0hdW2NIXVtjSF1bY0hdW2NIXTMpW0NIMl1PQyg9TylbTkhdYzRbY0hdW2NIXWMoW2NIXVtjSF00KU9bQ0gzXQ==

> <s_epik_cmdline>
J2VwaWtfcHl0aG9uJywgJy1waHQnLCAnMC41JywgJy1waCcsICc3LjUnLCAnLW50JywgJy1tYScsICcyMDAnLCAnLWltYWUnLCAnPGluZmlsZS5tYWU+JywgJy1vbWFlJywgJzxvdXRmaWxlLm1hZT4n

> <r_lp_tautomer_probability>
1

> <r_epik_Ionization_Penalty>
  0.0095

> <r_epik_Ionization_Penalty_Charging>
  0.0095

> <r_epik_Ionization_Penalty_Neutral>
  0.0000

> <r_epik_State_Penalty>
 -0.0000

> <r_epik_Charging_Adjusted_Penalty>
0.00945881282357717

> <i_epik_Tot_Q>
1

> <i_epik_Tot_abs_Q>
1

> <s_epik_Chemistry_Notes>
This compound has an ester and may undergo hydrolysis at high or low pH. This compound has an imine and may undergo hydrolysis.

> <s_lp_Force_Field>
OPLS3e

> <r_lp_Energy>
41.357509

> <b_lp_Chiralities_Consistent>
1

> <s_lp_Variant>
sdf/actives_sanitized.sdf:130-1

$$$$
sdf/actives_sanitized.sdf:131
                    3D
 Schrodinger Suite 2020-1.
 74 78  0  0  1  0            999 V2000
   -2.7559   -0.8590   -0.0833 C   0  0  0  0  0  0
   -4.0351   -1.4028   -0.1136 C   0  0  0  0  0  0
   -4.5397   -2.1166    0.9687 C   0  0  0  0  0  0
   -1.9297   -1.0099    1.0403 C   0  0  0  0  0  0
   -2.4087   -1.7297    2.1544 C   0  0  0  0  0  0
   -3.7242   -2.2765    2.0974 C   0  0  0  0  0  0
   -4.1332   -3.1305    3.5756 S   0  0  0  0  0  0
   -2.5629   -2.7543    4.2730 C   0  0  0  0  0  0
   -1.7757   -2.0206    3.3976 C   0  0  0  0  0  0
   -2.2194   -3.1929    5.5381 C   0  0  0  0  0  0
   -3.1508   -3.2453    6.4822 N   0  0  0  0  0  0
   -0.9601   -3.5419    5.7692 N   0  3  0  0  0  0
   -0.6440   -0.5141    1.1724 O   0  0  0  0  0  0
   -0.0793    0.3247    0.1567 C   0  0  2  0  0  0
    1.4253    0.4569    0.4451 C   0  0  0  0  0  0
   -0.7560    1.6976    0.1220 C   0  0  0  0  0  0
   -1.2038    2.3038    1.3016 C   0  0  0  0  0  0
   -1.8252    3.5488    1.2536 C   0  0  0  0  0  0
   -1.9962    4.1878    0.0277 C   0  0  0  0  0  0
   -1.5503    3.5938   -1.1507 C   0  0  0  0  0  0
   -0.9297    2.3485   -1.1034 C   0  0  0  0  0  0
    2.0777   -0.7869    0.2112 O   0  0  0  0  0  0
    3.4036   -0.9214    0.4124 C   0  0  0  0  0  0
    3.7816   -2.1995    0.0126 N   0  0  0  0  0  0
    4.1344   -0.0321    0.8548 O   0  0  0  0  0  0
    5.0555   -2.7910    0.0425 C   0  0  0  0  0  0
    5.2281   -3.9357   -0.7390 C   0  0  0  0  0  0
    6.4638   -4.5756   -0.7809 C   0  0  0  0  0  0
    7.5336   -4.0764   -0.0354 C   0  0  0  0  0  0
    7.3583   -2.9502    0.7705 C   0  0  0  0  0  0
    6.1250   -2.3056    0.8103 C   0  0  0  0  0  0
    8.8881   -4.7683   -0.0838 C   0  0  0  0  0  0
    9.9078   -4.0873   -1.0262 N   0  3  0  0  0  0
    9.4615   -4.1559   -2.5065 C   0  0  0  0  0  0
   10.5318   -3.4603   -3.3818 C   0  0  0  0  0  0
   11.8650   -4.0537   -3.2244 N   0  0  1  0  0  0
   12.2924   -4.0105   -1.8210 C   0  0  0  0  0  0
   11.3044   -4.7347   -0.8752 C   0  0  0  0  0  0
   12.0003   -5.3714   -3.8422 C   0  0  0  0  0  0
   -2.4178   -0.3151   -0.9520 H   0  0  0  0  0  0
   -4.6468   -1.2685   -0.9939 H   0  0  0  0  0  0
   -5.5354   -2.5348    0.9341 H   0  0  0  0  0  0
   -0.7749   -1.6911    3.6353 H   0  0  0  0  0  0
   -2.9116   -3.5654    7.4091 H   0  0  0  0  0  0
   -4.0968   -2.9661    6.2667 H   0  0  0  0  0  0
   -0.6872   -3.8637    6.6863 H   0  0  0  0  0  0
   -0.1933   -0.1621   -0.8146 H   0  0  0  0  0  0
    1.5862    0.7860    1.4735 H   0  0  0  0  0  0
    1.8615    1.2131   -0.2102 H   0  0  0  0  0  0
   -1.0719    1.8130    2.2551 H   0  0  0  0  0  0
   -2.1725    4.0169    2.1629 H   0  0  0  0  0  0
   -2.4784    5.1536   -0.0095 H   0  0  0  0  0  0
   -1.6854    4.0970   -2.0969 H   0  0  0  0  0  0
   -0.5857    1.8913   -2.0201 H   0  0  0  0  0  0
    3.0484   -2.7733   -0.3780 H   0  0  0  0  0  0
    4.4107   -4.3293   -1.3268 H   0  0  0  0  0  0
    6.5882   -5.4538   -1.3980 H   0  0  0  0  0  0
    8.1775   -2.5680    1.3622 H   0  0  0  0  0  0
    6.0230   -1.4423    1.4489 H   0  0  0  0  0  0
    9.3610   -4.7519    0.8999 H   0  0  0  0  0  0
    8.8138   -5.8040   -0.4223 H   0  0  0  0  0  0
    9.3044   -5.2053   -2.7612 H   0  0  0  0  0  0
    8.5104   -3.6264   -2.5682 H   0  0  0  0  0  0
   10.2363   -3.5080   -4.4310 H   0  0  0  0  0  0
   10.5839   -2.3981   -3.1365 H   0  0  0  0  0  0
   13.2835   -4.4580   -1.7311 H   0  0  0  0  0  0
   12.4080   -2.9690   -1.5161 H   0  0  0  0  0  0
   11.5924   -4.6042    0.1689 H   0  0  0  0  0  0
   11.2039   -5.8004   -1.0881 H   0  0  0  0  0  0
   13.0287   -5.7255   -3.7619 H   0  0  0  0  0  0
   11.7551   -5.3208   -4.9038 H   0  0  0  0  0  0
   11.3510   -6.1156   -3.3814 H   0  0  0  0  0  0
   -0.2823   -3.4942    5.0225 H   0  0  0  0  0  0
    9.9880   -3.1134   -0.7695 H   0  0  0  0  0  0
  1  4  2  0  0  0
  1  2  1  0  0  0
  1 40  1  0  0  0
  2  3  2  0  0  0
  2 41  1  0  0  0
  3  6  1  0  0  0
  3 42  1  0  0  0
  4 13  1  0  0  0
  4  5  1  0  0  0
  5  9  1  0  0  0
  5  6  2  0  0  0
  6  7  1  0  0  0
  7  8  1  0  0  0
  8 10  1  0  0  0
  8  9  2  0  0  0
  9 43  1  0  0  0
 10 11  1  0  0  0
 10 12  2  0  0  0
 11 44  1  0  0  0
 11 45  1  0  0  0
 12 46  1  0  0  0
 12 73  1  0  0  0
 13 14  1  0  0  0
 14 15  1  0  0  0
 14 16  1  0  0  0
 14 47  1  0  0  0
 15 22  1  0  0  0
 15 48  1  0  0  0
 15 49  1  0  0  0
 16 21  1  0  0  0
 16 17  2  0  0  0
 17 18  1  0  0  0
 17 50  1  0  0  0
 18 19  2  0  0  0
 18 51  1  0  0  0
 19 20  1  0  0  0
 19 52  1  0  0  0
 20 21  2  0  0  0
 20 53  1  0  0  0
 21 54  1  0  0  0
 22 23  1  0  0  0
 23 24  1  0  0  0
 23 25  2  0  0  0
 24 26  1  0  0  0
 24 55  1  0  0  0
 26 27  2  0  0  0
 26 31  1  0  0  0
 27 28  1  0  0  0
 27 56  1  0  0  0
 28 29  2  0  0  0
 28 57  1  0  0  0
 29 30  1  0  0  0
 29 32  1  0  0  0
 30 31  2  0  0  0
 30 58  1  0  0  0
 31 59  1  0  0  0
 32 33  1  0  0  0
 32 60  1  0  0  0
 32 61  1  0  0  0
 33 34  1  0  0  0
 33 38  1  0  0  0
 33 74  1  0  0  0
 34 35  1  0  0  0
 34 62  1  0  0  0
 34 63  1  0  0  0
 35 36  1  0  0  0
 35 64  1  0  0  0
 35 65  1  0  0  0
 36 37  1  0  0  0
 36 39  1  0  0  0
 37 38  1  0  0  0
 37 66  1  0  0  0
 37 67  1  0  0  0
 38 68  1  0  0  0
 38 69  1  0  0  0
 39 70  1  0  0  0
 39 71  1  0  0  0
 39 72  1  0  0  0
M  CHG  2  12   1  33   1
M  END
> <chembl_id>
CHEMBL597144

> <chembl_pref_name>
None

> <s_m_source_file>
sdf/actives_sanitized.sdf

> <i_m_source_file_index>
131

> <i_lp_mmshare_version>
49012

> <i_m_ct_stereo_status>
1

> <i_f3d_flags>
0

> <s_epik_input>
W0hdXE49QyhbTkgyXSlcYyhbY0hdMSlzYyhjMTIpW2NIXVtjSF1bY0hdYzJPW0NAQEhdKGMzW2NIXVtjSF1bY0hdW2NIXVtjSF0zKVtDSDJdT0MoPU8pW05IXWM0W2NIXVtjSF1jKFtjSF1bY0hdNClbQ0gyXU41W0NIMl1bQ0gyXU4oW0NIM10pW0NIMl1bQ0gyXTU=

> <s_epik_cmdline>
J2VwaWtfcHl0aG9uJywgJy1waHQnLCAnMC41JywgJy1waCcsICc3LjUnLCAnLW50JywgJy1tYScsICcyMDAnLCAnLWltYWUnLCAnPGluZmlsZS5tYWU+JywgJy1vbWFlJywgJzxvdXRmaWxlLm1hZT4n

> <r_lp_tautomer_probability>
1

> <r_epik_Ionization_Penalty>
  0.0574

> <r_epik_Ionization_Penalty_Charging>
  0.0570

> <r_epik_Ionization_Penalty_Neutral>
  0.0004

> <r_epik_State_Penalty>
 -0.0000

> <r_epik_Charging_Adjusted_Penalty>
0.057007096197634

> <i_epik_Tot_Q>
2

> <i_epik_Tot_abs_Q>
2

> <s_epik_Chemistry_Notes>
This compound has an ester and may undergo hydrolysis at high or low pH. This compound has an imine and may undergo hydrolysis.

> <s_lp_Force_Field>
OPLS3e

> <r_lp_Energy>
62.560704

> <b_lp_Chiralities_Consistent>
1

> <s_lp_Variant>
sdf/actives_sanitized.sdf:131-1

$$$$
sdf/actives_sanitized.sdf:132
                    3D
 Schrodinger Suite 2020-1.
 65 68  0  0  1  0            999 V2000
   -2.6084   -0.9348   -0.1125 C   0  0  0  0  0  0
   -3.8942   -1.4631   -0.0922 C   0  0  0  0  0  0
   -4.3734   -2.1488    1.0195 C   0  0  0  0  0  0
   -1.7503   -1.0723    0.9889 C   0  0  0  0  0  0
   -2.2043   -1.7601    2.1330 C   0  0  0  0  0  0
   -3.5258   -2.2946    2.1266 C   0  0  0  0  0  0
   -3.8982   -3.1129    3.6345 S   0  0  0  0  0  0
   -2.2994   -2.7491    4.2714 C   0  0  0  0  0  0
   -1.5372   -2.0302    3.3630 C   0  0  0  0  0  0
   -1.9296   -3.1459    5.5426 C   0  0  0  0  0  0
   -2.3607   -4.3107    6.0094 N   0  0  0  0  0  0
   -1.1420   -2.3484    6.2529 N   0  3  0  0  0  0
   -0.4547   -0.5932    1.0727 O   0  0  0  0  0  0
    0.1206    0.1417   -0.0142 C   0  0  2  0  0  0
    1.6391    0.2070    0.2193 C   0  0  0  0  0  0
   -0.4848    1.5432   -0.1231 C   0  0  0  0  0  0
   -0.8507    2.2537    1.0261 C   0  0  0  0  0  0
   -1.4080    3.5246    0.9127 C   0  0  0  0  0  0
   -1.5983    4.0843   -0.3486 C   0  0  0  0  0  0
   -1.2351    3.3855   -1.4976 C   0  0  0  0  0  0
   -0.6771    2.1149   -1.3848 C   0  0  0  0  0  0
    2.1905   -1.1053    0.1770 O   0  0  0  0  0  0
    3.5160   -1.3056    0.3071 C   0  0  0  0  0  0
    3.7578   -2.6746    0.2587 N   0  0  0  0  0  0
    4.3494   -0.4054    0.4292 O   0  0  0  0  0  0
    4.9856   -3.3588    0.3428 C   0  0  0  0  0  0
    6.1161   -2.7991    0.9630 C   0  0  0  0  0  0
    7.3138   -3.5084    1.0267 C   0  0  0  0  0  0
    7.3972   -4.7868    0.4825 C   0  0  0  0  0  0
    6.2800   -5.3598   -0.1208 C   0  0  0  0  0  0
    5.0706   -4.6587   -0.1963 C   0  0  0  0  0  0
    3.8725   -5.3447   -0.8544 C   0  0  0  0  0  0
    3.6084   -4.9013   -2.3111 N   0  3  0  0  0  0
    2.2719   -5.4573   -2.8397 C   0  0  0  0  0  0
    4.7679   -5.2533   -3.2646 C   0  0  0  0  0  0
   -2.2913   -0.4131   -1.0023 H   0  0  0  0  0  0
   -4.5317   -1.3390   -0.9555 H   0  0  0  0  0  0
   -5.3742   -2.5561    1.0234 H   0  0  0  0  0  0
   -0.5266   -1.7063    3.5639 H   0  0  0  0  0  0
   -2.1032   -4.6082    6.9391 H   0  0  0  0  0  0
   -2.9482   -4.8939    5.4316 H   0  0  0  0  0  0
   -0.8628   -2.6159    7.1853 H   0  0  0  0  0  0
   -0.0489   -0.4046   -0.9448 H   0  0  0  0  0  0
    1.8543    0.6730    1.1826 H   0  0  0  0  0  0
    2.1046    0.8227   -0.5526 H   0  0  0  0  0  0
   -0.7041    1.8243    2.0066 H   0  0  0  0  0  0
   -1.6905    4.0743    1.7984 H   0  0  0  0  0  0
   -2.0305    5.0703   -0.4364 H   0  0  0  0  0  0
   -1.3853    3.8274   -2.4716 H   0  0  0  0  0  0
   -0.3968    1.5767   -2.2786 H   0  0  0  0  0  0
    2.9535   -3.2554    0.0742 H   0  0  0  0  0  0
    6.0862   -1.8194    1.4144 H   0  0  0  0  0  0
    8.1769   -3.0674    1.5036 H   0  0  0  0  0  0
    8.3259   -5.3360    0.5343 H   0  0  0  0  0  0
    6.3585   -6.3561   -0.5314 H   0  0  0  0  0  0
    3.9855   -6.4302   -0.8954 H   0  0  0  0  0  0
    2.9484   -5.1205   -0.3191 H   0  0  0  0  0  0
    2.3445   -6.5462   -2.8527 H   0  0  0  0  0  0
    2.1248   -5.0514   -3.8414 H   0  0  0  0  0  0
    1.4867   -5.1137   -2.1651 H   0  0  0  0  0  0
    4.8929   -6.3372   -3.2513 H   0  0  0  0  0  0
    5.6587   -4.7395   -2.9024 H   0  0  0  0  0  0
    4.4948   -4.8919   -4.2568 H   0  0  0  0  0  0
   -0.8354   -1.4699    5.8607 H   0  0  0  0  0  0
    3.5273   -3.8937   -2.3020 H   0  0  0  0  0  0
  1  4  2  0  0  0
  1  2  1  0  0  0
  1 36  1  0  0  0
  2  3  2  0  0  0
  2 37  1  0  0  0
  3  6  1  0  0  0
  3 38  1  0  0  0
  4 13  1  0  0  0
  4  5  1  0  0  0
  5  9  1  0  0  0
  5  6  2  0  0  0
  6  7  1  0  0  0
  7  8  1  0  0  0
  8  9  2  0  0  0
  8 10  1  0  0  0
  9 39  1  0  0  0
 10 11  1  0  0  0
 10 12  2  0  0  0
 11 40  1  0  0  0
 11 41  1  0  0  0
 12 42  1  0  0  0
 12 64  1  0  0  0
 13 14  1  0  0  0
 14 15  1  0  0  0
 14 16  1  0  0  0
 14 43  1  0  0  0
 15 22  1  0  0  0
 15 44  1  0  0  0
 15 45  1  0  0  0
 16 17  2  0  0  0
 16 21  1  0  0  0
 17 18  1  0  0  0
 17 46  1  0  0  0
 18 19  2  0  0  0
 18 47  1  0  0  0
 19 20  1  0  0  0
 19 48  1  0  0  0
 20 21  2  0  0  0
 20 49  1  0  0  0
 21 50  1  0  0  0
 22 23  1  0  0  0
 23 24  1  0  0  0
 23 25  2  0  0  0
 24 26  1  0  0  0
 24 51  1  0  0  0
 26 27  2  0  0  0
 26 31  1  0  0  0
 27 28  1  0  0  0
 27 52  1  0  0  0
 28 29  2  0  0  0
 28 53  1  0  0  0
 29 30  1  0  0  0
 29 54  1  0  0  0
 30 31  2  0  0  0
 30 55  1  0  0  0
 31 32  1  0  0  0
 32 33  1  0  0  0
 32 56  1  0  0  0
 32 57  1  0  0  0
 33 34  1  0  0  0
 33 35  1  0  0  0
 33 65  1  0  0  0
 34 58  1  0  0  0
 34 59  1  0  0  0
 34 60  1  0  0  0
 35 61  1  0  0  0
 35 62  1  0  0  0
 35 63  1  0  0  0
M  CHG  2  12   1  33   1
M  END
> <chembl_id>
CHEMBL597758

> <chembl_pref_name>
None

> <s_m_source_file>
sdf/actives_sanitized.sdf

> <i_m_source_file_index>
132

> <i_lp_mmshare_version>
49012

> <i_m_ct_stereo_status>
1

> <i_f3d_flags>
0

> <s_epik_input>
W0hdXE49QyhbTkgyXSlcYyhbY0hdMSlzYyhjMTIpW2NIXVtjSF1bY0hdYzJPW0NAQEhdKGMzW2NIXVtjSF1bY0hdW2NIXVtjSF0zKVtDSDJdT0MoPU8pW05IXWM0W2NIXVtjSF1bY0hdW2NIXWM0W0NIMl1OKFtDSDNdKVtDSDNd

> <s_epik_cmdline>
J2VwaWtfcHl0aG9uJywgJy1waHQnLCAnMC41JywgJy1waCcsICc3LjUnLCAnLW50JywgJy1tYScsICcyMDAnLCAnLWltYWUnLCAnPGluZmlsZS5tYWU+JywgJy1vbWFlJywgJzxvdXRmaWxlLm1hZT4n

> <r_lp_tautomer_probability>
1

> <r_epik_Ionization_Penalty>
  0.1377

> <r_epik_Ionization_Penalty_Charging>
  0.1377

> <r_epik_Ionization_Penalty_Neutral>
  0.0000

> <r_epik_State_Penalty>
 -0.0000

> <r_epik_Charging_Adjusted_Penalty>
0.137665876281136

> <i_epik_Tot_Q>
2

> <i_epik_Tot_abs_Q>
2

> <s_epik_Chemistry_Notes>
This compound has an ester and may undergo hydrolysis at high or low pH. This compound has an imine and may undergo hydrolysis.

> <s_lp_Force_Field>
OPLS3e

> <r_lp_Energy>
50.684024

> <b_lp_Chiralities_Consistent>
1

> <s_lp_Variant>
sdf/actives_sanitized.sdf:132-1

$$$$
sdf/actives_sanitized.sdf:133
                    3D
 Schrodinger Suite 2020-1.
 62 65  0  0  1  0            999 V2000
   -2.8144   -0.7029    0.0445 C   0  0  0  0  0  0
   -4.1308   -1.1447    0.1149 C   0  0  0  0  0  0
   -4.5984   -1.8385    1.2263 C   0  0  0  0  0  0
   -1.9127   -0.9382    1.0931 C   0  0  0  0  0  0
   -2.3527   -1.6409    2.2337 C   0  0  0  0  0  0
   -3.7071   -2.0838    2.2801 C   0  0  0  0  0  0
   -4.0589   -2.9306    3.7768 S   0  0  0  0  0  0
   -2.4080   -2.7012    4.3392 C   0  0  0  0  0  0
   -1.6440   -2.0037    3.4156 C   0  0  0  0  0  0
   -2.0034   -3.1681    5.5753 C   0  0  0  0  0  0
   -2.4956   -4.3138    6.0286 N   0  0  0  0  0  0
   -1.1255   -2.4537    6.2679 N   0  3  0  0  0  0
   -0.5860   -0.5439    1.1249 O   0  0  0  0  0  0
   -0.0395    0.2577    0.0703 C   0  0  2  0  0  0
    1.4886    0.2760    0.2417 C   0  0  0  0  0  0
   -0.6120    1.6774    0.0905 C   0  0  0  0  0  0
   -0.9026    2.3123    1.3035 C   0  0  0  0  0  0
   -1.4309    3.6004    1.3075 C   0  0  0  0  0  0
   -1.6668    4.2530    0.0997 C   0  0  0  0  0  0
   -1.3782    3.6298   -1.1122 C   0  0  0  0  0  0
   -0.8500    2.3416   -1.1169 C   0  0  0  0  0  0
    2.0218   -1.0199   -0.0106 O   0  0  0  0  0  0
    3.3492   -1.2454    0.0441 C   0  0  0  0  0  0
    3.5830   -2.5739   -0.2918 N   0  0  0  0  0  0
    4.1908   -0.3937    0.3429 O   0  0  0  0  0  0
    4.8482   -3.1327   -0.3549 C   0  0  0  0  0  0
    5.0589   -4.4907   -0.3502 N   0  0  0  0  0  0
    6.3605   -4.8111   -0.3936 N   0  0  0  0  0  0
    7.0198   -3.6701   -0.4665 C   0  0  0  0  0  0
    6.1248   -2.5921   -0.4437 C   0  0  0  0  0  0
    4.0801   -5.5629   -0.2265 C   0  0  0  0  0  0
    8.5389   -3.6032   -0.5601 C   0  0  0  0  0  0
    9.1735   -5.0070   -0.5776 N   0  3  0  0  0  0
   10.7033   -4.9889   -0.7005 C   0  0  0  0  0  0
   -2.5075   -0.1704   -0.8425 H   0  0  0  0  0  0
   -4.8011   -0.9454   -0.7086 H   0  0  0  0  0  0
   -5.6236   -2.1773    1.2704 H   0  0  0  0  0  0
   -0.6040   -1.7578    3.5727 H   0  0  0  0  0  0
   -2.2105   -4.6630    6.9318 H   0  0  0  0  0  0
   -3.1590   -4.8293    5.4686 H   0  0  0  0  0  0
   -0.8170   -2.7755    7.1735 H   0  0  0  0  0  0
   -0.2640   -0.2137   -0.8893 H   0  0  0  0  0  0
    1.7535    0.6060    1.2478 H   0  0  0  0  0  0
    1.9294    0.9864   -0.4604 H   0  0  0  0  0  0
   -0.7201    1.8102    2.2427 H   0  0  0  0  0  0
   -1.6569    4.0915    2.2427 H   0  0  0  0  0  0
   -2.0768    5.2524    0.1032 H   0  0  0  0  0  0
   -1.5637    4.1437   -2.0441 H   0  0  0  0  0  0
   -0.6281    1.8615   -2.0591 H   0  0  0  0  0  0
    2.7840   -3.1627   -0.4764 H   0  0  0  0  0  0
    6.3852   -1.5446   -0.4866 H   0  0  0  0  0  0
    3.1215   -5.2445   -0.6374 H   0  0  0  0  0  0
    3.9553   -5.8148    0.8269 H   0  0  0  0  0  0
    4.4159   -6.4460   -0.7728 H   0  0  0  0  0  0
    8.8820   -3.1288   -1.4808 H   0  0  0  0  0  0
    8.9933   -3.1012    0.2953 H   0  0  0  0  0  0
    8.9177   -5.4888    0.2730 H   0  0  0  0  0  0
   11.0224   -6.0315   -0.6903 H   0  0  0  0  0  0
   11.0931   -4.4401    0.1576 H   0  0  0  0  0  0
   10.9473   -4.5034   -1.6463 H   0  0  0  0  0  0
    8.7888   -5.5265   -1.3544 H   0  0  0  0  0  0
   -0.7793   -1.5838    5.8901 H   0  0  0  0  0  0
  1  4  2  0  0  0
  1  2  1  0  0  0
  1 35  1  0  0  0
  2  3  2  0  0  0
  2 36  1  0  0  0
  3  6  1  0  0  0
  3 37  1  0  0  0
  4 13  1  0  0  0
  4  5  1  0  0  0
  5  9  1  0  0  0
  5  6  2  0  0  0
  6  7  1  0  0  0
  7  8  1  0  0  0
  8  9  2  0  0  0
  8 10  1  0  0  0
  9 38  1  0  0  0
 10 11  1  0  0  0
 10 12  2  0  0  0
 11 39  1  0  0  0
 11 40  1  0  0  0
 12 41  1  0  0  0
 12 62  1  0  0  0
 13 14  1  0  0  0
 14 15  1  0  0  0
 14 16  1  0  0  0
 14 42  1  0  0  0
 15 22  1  0  0  0
 15 43  1  0  0  0
 15 44  1  0  0  0
 16 17  2  0  0  0
 16 21  1  0  0  0
 17 18  1  0  0  0
 17 45  1  0  0  0
 18 19  2  0  0  0
 18 46  1  0  0  0
 19 20  1  0  0  0
 19 47  1  0  0  0
 20 21  2  0  0  0
 20 48  1  0  0  0
 21 49  1  0  0  0
 22 23  1  0  0  0
 23 24  1  0  0  0
 23 25  2  0  0  0
 24 26  1  0  0  0
 24 50  1  0  0  0
 26 27  1  0  0  0
 26 30  2  0  0  0
 27 28  1  0  0  0
 27 31  1  0  0  0
 28 29  2  0  0  0
 29 30  1  0  0  0
 29 32  1  0  0  0
 30 51  1  0  0  0
 31 52  1  0  0  0
 31 53  1  0  0  0
 31 54  1  0  0  0
 32 33  1  0  0  0
 32 55  1  0  0  0
 32 56  1  0  0  0
 33 34  1  0  0  0
 33 57  1  0  0  0
 33 61  1  0  0  0
 34 58  1  0  0  0
 34 59  1  0  0  0
 34 60  1  0  0  0
M  CHG  2  12   1  33   1
M  END
> <chembl_id>
CHEMBL601018

> <chembl_pref_name>
None

> <s_m_source_file>
sdf/actives_sanitized.sdf

> <i_m_source_file_index>
133

> <i_lp_mmshare_version>
49012

> <i_m_ct_stereo_status>
1

> <i_f3d_flags>
0

> <s_epik_input>
W0hdXE49QyhbTkgyXSlcYyhbY0hdMSlzYyhjMTIpW2NIXVtjSF1bY0hdYzJPW0NAQEhdKGMzW2NIXVtjSF1bY0hdW2NIXVtjSF0zKVtDSDJdT0MoPU8pW05IXWM0bihbQ0gzXSluYyhbY0hdNClbQ0gyXVtOSF1bQ0gzXQ==

> <s_epik_cmdline>
J2VwaWtfcHl0aG9uJywgJy1waHQnLCAnMC41JywgJy1waCcsICc3LjUnLCAnLW50JywgJy1tYScsICcyMDAnLCAnLWltYWUnLCAnPGluZmlsZS5tYWU+JywgJy1vbWFlJywgJzxvdXRmaWxlLm1hZT4n

> <r_lp_tautomer_probability>
1

> <r_epik_Ionization_Penalty>
  0.0172

> <r_epik_Ionization_Penalty_Charging>
  0.0172

> <r_epik_Ionization_Penalty_Neutral>
  0.0000

> <r_epik_State_Penalty>
 -0.0000

> <r_epik_Charging_Adjusted_Penalty>
0.0172154237357616

> <i_epik_Tot_Q>
2

> <i_epik_Tot_abs_Q>
2

> <s_epik_Chemistry_Notes>
This compound has an ester and may undergo hydrolysis at high or low pH. This compound has an imine and may undergo hydrolysis.

> <s_lp_Force_Field>
OPLS3e

> <r_lp_Energy>
32.957153

> <b_lp_Chiralities_Consistent>
1

> <s_lp_Variant>
sdf/actives_sanitized.sdf:133-1

$$$$
sdf/actives_sanitized.sdf:134
                    3D
 Schrodinger Suite 2020-1.
 63 67  0  0  1  0            999 V2000
   -5.2439    1.7621   -0.9141 C   0  0  0  0  0  0
   -4.1288    0.9484   -1.6016 C   0  0  2  0  0  0
   -2.7437    1.6511   -1.4869 C   0  0  0  0  0  0
   -2.0922    1.5919   -0.0795 C   0  0  0  0  0  0
   -0.5425    1.4896   -0.0861 C   0  0  0  0  0  0
    0.0464    0.0443   -0.1816 C   0  0  2  0  0  0
    1.5279    0.0026   -0.0920 N   0  0  0  0  0  0
    2.3383    1.0369   -0.8026 C   0  0  0  0  0  0
    3.7632    0.5464   -1.1776 C   0  0  0  0  0  0
    4.3738   -0.1632    0.0179 C   0  0  0  0  0  0
    3.5553   -0.9104    0.7851 C   0  0  0  0  0  0
    2.1218   -1.0132    0.6166 C   0  0  0  0  0  0
    1.5125   -1.9732    1.0921 O   0  0  0  0  0  0
    5.8458   -0.2821    0.1647 C   0  0  0  0  0  0
    6.6582   -0.6357   -0.9266 C   0  0  0  0  0  0
    6.1186   -0.8998   -2.1396 F   0  0  0  0  0  0
    8.0410   -0.7409   -0.7770 C   0  0  0  0  0  0
    8.6341   -0.4943    0.4581 C   0  0  0  0  0  0
    7.8451   -0.1389    1.5500 C   0  0  0  0  0  0
    8.5963    0.1714    3.0749 Cl  0  0  0  0  0  0
    6.4582   -0.0324    1.4061 C   0  0  0  0  0  0
    5.7086    0.3300    2.4756 F   0  0  0  0  0  0
   -0.5144   -0.7320   -1.3772 C   0  0  0  0  0  0
   -1.7147   -1.4316   -1.2365 C   0  0  0  0  0  0
   -2.3642   -1.9076   -2.3782 C   0  0  0  0  0  0
   -1.7191   -1.7859   -3.6151 C   0  0  0  0  0  0
   -0.4710   -1.1617   -3.6650 C   0  0  0  0  0  0
    0.1265   -0.6193   -2.5734 N   0  0  0  0  0  0
   -3.7443   -2.4407   -2.2618 C   0  0  0  0  0  0
   -3.9530   -3.6316   -1.5543 C   0  0  0  0  0  0
   -5.2330   -4.1632   -1.4055 C   0  0  0  0  0  0
   -5.4114   -5.3174   -0.7242 F   0  0  0  0  0  0
   -6.3278   -3.5065   -1.9611 C   0  0  0  0  0  0
   -6.1440   -2.3151   -2.6593 C   0  0  0  0  0  0
   -4.8649   -1.7675   -2.8006 C   0  0  0  0  0  0
   -4.7679   -0.5768   -3.5391 N   0  0  0  0  0  0
   -4.4827    0.6659   -3.0864 C   0  0  0  0  0  0
   -4.5047    1.6101   -3.8750 O   0  0  0  0  0  0
   -6.2057    1.2506   -0.9754 H   0  0  0  0  0  0
   -5.3663    2.7467   -1.3683 H   0  0  0  0  0  0
   -5.0267    1.9120    0.1439 H   0  0  0  0  0  0
   -4.0702    0.0017   -1.0697 H   0  0  0  0  0  0
   -2.0598    1.2155   -2.2146 H   0  0  0  0  0  0
   -2.8256    2.6933   -1.8013 H   0  0  0  0  0  0
   -2.3875    2.4894    0.4657 H   0  0  0  0  0  0
   -2.4989    0.7657    0.5046 H   0  0  0  0  0  0
   -0.1518    2.1297   -0.8775 H   0  0  0  0  0  0
   -0.1807    1.9284    0.8449 H   0  0  0  0  0  0
   -0.3398   -0.4633    0.7050 H   0  0  0  0  0  0
    1.7974    1.4840   -1.6364 H   0  0  0  0  0  0
    2.4674    1.8465   -0.0831 H   0  0  0  0  0  0
    3.6639   -0.1585   -2.0042 H   0  0  0  0  0  0
    4.3849    1.3752   -1.5178 H   0  0  0  0  0  0
    3.9859   -1.5138    1.5722 H   0  0  0  0  0  0
    8.6556   -1.0181   -1.6210 H   0  0  0  0  0  0
    9.7059   -0.5790    0.5654 H   0  0  0  0  0  0
   -2.2015   -1.4901   -0.2735 H   0  0  0  0  0  0
   -2.1838   -2.1490   -4.5204 H   0  0  0  0  0  0
    0.0519   -1.0518   -4.6035 H   0  0  0  0  0  0
   -3.1136   -4.1549   -1.1188 H   0  0  0  0  0  0
   -7.3192   -3.9204   -1.8509 H   0  0  0  0  0  0
   -7.0037   -1.8172   -3.0851 H   0  0  0  0  0  0
   -5.0562   -0.6475   -4.5039 H   0  0  0  0  0  0
  1  2  1  0  0  0
  1 39  1  0  0  0
  1 40  1  0  0  0
  1 41  1  0  0  0
  2  3  1  0  0  0
  2 37  1  0  0  0
  2 42  1  0  0  0
  3  4  1  0  0  0
  3 43  1  0  0  0
  3 44  1  0  0  0
  4  5  1  0  0  0
  4 45  1  0  0  0
  4 46  1  0  0  0
  5  6  1  0  0  0
  5 47  1  0  0  0
  5 48  1  0  0  0
  6  7  1  0  0  0
  6 23  1  0  0  0
  6 49  1  0  0  0
  7  8  1  0  0  0
  7 12  1  0  0  0
  8  9  1  0  0  0
  8 50  1  0  0  0
  8 51  1  0  0  0
  9 10  1  0  0  0
  9 52  1  0  0  0
  9 53  1  0  0  0
 10 11  2  0  0  0
 10 14  1  0  0  0
 11 12  1  0  0  0
 11 54  1  0  0  0
 12 13  2  0  0  0
 14 15  2  0  0  0
 14 21  1  0  0  0
 15 16  1  0  0  0
 15 17  1  0  0  0
 17 18  2  0  0  0
 17 55  1  0  0  0
 18 19  1  0  0  0
 18 56  1  0  0  0
 19 20  1  0  0  0
 19 21  2  0  0  0
 21 22  1  0  0  0
 23 24  1  0  0  0
 23 28  2  0  0  0
 24 25  2  0  0  0
 24 57  1  0  0  0
 25 26  1  0  0  0
 25 29  1  0  0  0
 26 27  2  0  0  0
 26 58  1  0  0  0
 27 28  1  0  0  0
 27 59  1  0  0  0
 29 30  2  0  0  0
 29 35  1  0  0  0
 30 31  1  0  0  0
 30 60  1  0  0  0
 31 32  1  0  0  0
 31 33  2  0  0  0
 33 34  1  0  0  0
 33 61  1  0  0  0
 34 35  2  0  0  0
 34 62  1  0  0  0
 35 36  1  0  0  0
 36 37  1  0  0  0
 36 63  1  0  0  0
 37 38  2  0  0  0
M  END
> <chembl_id>
CHEMBL4108249

> <chembl_pref_name>
None

> <i_m_ct_stereo_status>
1

> <s_m_source_file>
sdf/actives_sanitized.sdf

> <i_m_source_file_index>
134

> <i_lp_mmshare_version>
49012

> <i_f3d_flags>
0

> <s_epik_input>
bjFbY0hdW2NIXWMoW2NIXWMxMiljM2MoW2NIXVtjSF1jKEYpW2NIXTMpW05IXUMoPU8pW0NASF0oW0NIM10pW0NIMl1bQ0gyXVtDSDJdW0NAQEhdMk40W0NIMl1bQ0gyXUMoPVtDSF1DND1PKWM1YyhGKVtjSF1bY0hdYyhDbCljNUY=

> <s_epik_cmdline>
J2VwaWtfcHl0aG9uJywgJy1waHQnLCAnMC41JywgJy1waCcsICc3LjUnLCAnLW50JywgJy1tYScsICcyMDAnLCAnLWltYWUnLCAnPGluZmlsZS5tYWU+JywgJy1vbWFlJywgJzxvdXRmaWxlLm1hZT4n

> <r_lp_tautomer_probability>
1

> <r_epik_Ionization_Penalty>
  0.0001

> <r_epik_Ionization_Penalty_Charging>
  0.0000

> <r_epik_Ionization_Penalty_Neutral>
  0.0001

> <r_epik_State_Penalty>
 -0.0000

> <r_epik_Charging_Adjusted_Penalty>
0

> <i_epik_Tot_Q>
0

> <i_epik_Tot_abs_Q>
0

> <s_lp_Force_Field>
OPLS3e

> <r_lp_Energy>
93.072601

> <b_lp_Chiralities_Consistent>
1

> <s_lp_Variant>
sdf/actives_sanitized.sdf:134-1

$$$$
sdf/actives_sanitized.sdf:135
                    3D
 Schrodinger Suite 2020-1.
 80 84  0  0  1  0            999 V2000
  -11.3130   -4.0088   -2.0880 C   0  0  0  0  0  0
   -9.9352   -4.2272   -1.8167 O   0  0  0  0  0  0
   -9.0013   -3.3436   -2.2235 C   0  0  0  0  0  0
   -9.2485   -2.3090   -2.8468 O   0  0  0  0  0  0
   -7.7549   -3.8087   -1.8158 N   0  0  0  0  0  0
   -6.4803   -3.2492   -2.0091 C   0  0  0  0  0  0
   -5.4109   -3.9357   -1.4326 C   0  0  0  0  0  0
   -4.1079   -3.4649   -1.5753 C   0  0  0  0  0  0
   -3.8372   -2.2994   -2.2993 C   0  0  0  0  0  0
   -4.9194   -1.5887   -2.8643 C   0  0  0  0  0  0
   -4.7583   -0.4169   -3.6218 N   0  0  0  0  0  0
   -4.4255    0.8194   -3.1851 C   0  0  0  0  0  0
   -4.3929    1.7498   -3.9896 O   0  0  0  0  0  0
   -4.0809    1.1114   -1.7000 C   0  0  2  0  0  0
   -5.1666    1.9900   -1.0456 C   0  0  0  0  0  0
   -2.6652    1.7491   -1.5776 C   0  0  0  0  0  0
   -2.0356    1.6906   -0.1604 C   0  0  0  0  0  0
   -0.4919    1.5165   -0.1429 C   0  0  0  0  0  0
    0.0285    0.0436   -0.1980 C   0  0  2  0  0  0
    1.5047   -0.0612   -0.0776 N   0  0  0  0  0  0
    2.3728    0.8930   -0.8284 C   0  0  0  0  0  0
    3.7877    0.3308   -1.1400 C   0  0  0  0  0  0
    4.3422   -0.3797    0.0825 C   0  0  0  0  0  0
    3.4715   -0.9800    0.9168 C   0  0  0  0  0  0
    2.0393   -1.0363    0.7267 C   0  0  0  0  0  0
    1.3812   -1.9297    1.2631 O   0  0  0  0  0  0
    5.8582   -0.4304    0.2745 C   0  0  2  0  0  0
    6.4392   -1.8247   -0.0569 C   0  0  0  0  0  0
    7.9833   -1.8007    0.0393 C   0  0  0  0  0  0
    8.4592   -1.2597    1.4100 C   0  0  0  0  0  0
    7.8374    0.1212    1.7417 C   0  0  2  0  0  0
    8.3254    0.6487    3.1022 C   0  0  0  0  0  0
    6.2964   -0.0115    1.6986 C   0  0  0  0  0  0
   -0.5446   -0.7282   -1.3905 C   0  0  0  0  0  0
   -1.7772   -1.3706   -1.2584 C   0  0  0  0  0  0
   -2.4330   -1.8306   -2.4033 C   0  0  0  0  0  0
   -1.7673   -1.7523   -3.6327 C   0  0  0  0  0  0
   -0.4915   -1.1860   -3.6728 C   0  0  0  0  0  0
    0.1162   -0.6593   -2.5792 N   0  0  0  0  0  0
   -6.2247   -2.0741   -2.7322 C   0  0  0  0  0  0
  -11.9027   -4.8375   -1.6961 H   0  0  0  0  0  0
  -11.4959   -3.9397   -3.1614 H   0  0  0  0  0  0
  -11.6638   -3.0897   -1.6166 H   0  0  0  0  0  0
   -7.7615   -4.6781   -1.3031 H   0  0  0  0  0  0
   -5.5812   -4.8422   -0.8690 H   0  0  0  0  0  0
   -3.2987   -4.0176   -1.1195 H   0  0  0  0  0  0
   -5.0390   -0.4901   -4.5888 H   0  0  0  0  0  0
   -4.0752    0.1729   -1.1500 H   0  0  0  0  0  0
   -6.1498    1.5207   -1.1081 H   0  0  0  0  0  0
   -5.2400    2.9679   -1.5239 H   0  0  0  0  0  0
   -4.9560    2.1554    0.0114 H   0  0  0  0  0  0
   -1.9935    1.2638   -2.2847 H   0  0  0  0  0  0
   -2.6910    2.7865   -1.9163 H   0  0  0  0  0  0
   -2.2959    2.6126    0.3613 H   0  0  0  0  0  0
   -2.4887    0.8975    0.4354 H   0  0  0  0  0  0
   -0.0590    2.1177   -0.9428 H   0  0  0  0  0  0
   -0.1217    1.9590    0.7833 H   0  0  0  0  0  0
   -0.4029   -0.4275    0.6875 H   0  0  0  0  0  0
    1.8690    1.3227   -1.6941 H   0  0  0  0  0  0
    2.5266    1.7308   -0.1469 H   0  0  0  0  0  0
    3.7044   -0.3923   -1.9524 H   0  0  0  0  0  0
    4.4478    1.1248   -1.4902 H   0  0  0  0  0  0
    3.8607   -1.5114    1.7732 H   0  0  0  0  0  0
    6.2968    0.2895   -0.4194 H   0  0  0  0  0  0
    6.0645   -2.5669    0.6504 H   0  0  0  0  0  0
    6.1409   -2.1413   -1.0574 H   0  0  0  0  0  0
    8.3810   -2.8035   -0.1219 H   0  0  0  0  0  0
    8.3907   -1.1789   -0.7593 H   0  0  0  0  0  0
    8.2044   -1.9743    2.1948 H   0  0  0  0  0  0
    9.5479   -1.1968    1.4375 H   0  0  0  0  0  0
    8.1431    0.8283    0.9680 H   0  0  0  0  0  0
    8.0436   -0.0205    3.9161 H   0  0  0  0  0  0
    7.9016    1.6300    3.3185 H   0  0  0  0  0  0
    9.4108    0.7531    3.1186 H   0  0  0  0  0  0
    5.9769   -0.7272    2.4584 H   0  0  0  0  0  0
    5.8420    0.9415    1.9752 H   0  0  0  0  0  0
   -2.2789   -1.3932   -0.3015 H   0  0  0  0  0  0
   -2.2373   -2.1040   -4.5397 H   0  0  0  0  0  0
    0.0469   -1.1092   -4.6057 H   0  0  0  0  0  0
   -7.0240   -1.5185   -3.1966 H   0  0  0  0  0  0
  1  2  1  0  0  0
  1 41  1  0  0  0
  1 42  1  0  0  0
  1 43  1  0  0  0
  2  3  1  0  0  0
  3  4  2  0  0  0
  3  5  1  0  0  0
  5  6  1  0  0  0
  5 44  1  0  0  0
  6  7  2  0  0  0
  6 40  1  0  0  0
  7  8  1  0  0  0
  7 45  1  0  0  0
  8  9  2  0  0  0
  8 46  1  0  0  0
  9 10  1  0  0  0
  9 36  1  0  0  0
 10 11  1  0  0  0
 10 40  2  0  0  0
 11 12  1  0  0  0
 11 47  1  0  0  0
 12 13  2  0  0  0
 12 14  1  0  0  0
 14 15  1  0  0  0
 14 16  1  0  0  0
 14 48  1  0  0  0
 15 49  1  0  0  0
 15 50  1  0  0  0
 15 51  1  0  0  0
 16 17  1  0  0  0
 16 52  1  0  0  0
 16 53  1  0  0  0
 17 18  1  0  0  0
 17 54  1  0  0  0
 17 55  1  0  0  0
 18 19  1  0  0  0
 18 56  1  0  0  0
 18 57  1  0  0  0
 19 20  1  0  0  0
 19 34  1  0  0  0
 19 58  1  0  0  0
 20 21  1  0  0  0
 20 25  1  0  0  0
 21 22  1  0  0  0
 21 59  1  0  0  0
 21 60  1  0  0  0
 22 23  1  0  0  0
 22 61  1  0  0  0
 22 62  1  0  0  0
 23 24  2  0  0  0
 23 27  1  0  0  0
 24 25  1  0  0  0
 24 63  1  0  0  0
 25 26  2  0  0  0
 27 28  1  0  0  0
 27 33  1  0  0  0
 27 64  1  0  0  0
 28 29  1  0  0  0
 28 65  1  0  0  0
 28 66  1  0  0  0
 29 30  1  0  0  0
 29 67  1  0  0  0
 29 68  1  0  0  0
 30 31  1  0  0  0
 30 69  1  0  0  0
 30 70  1  0  0  0
 31 32  1  0  0  0
 31 33  1  0  0  0
 31 71  1  0  0  0
 32 72  1  0  0  0
 32 73  1  0  0  0
 32 74  1  0  0  0
 33 75  1  0  0  0
 33 76  1  0  0  0
 34 35  1  0  0  0
 34 39  2  0  0  0
 35 36  2  0  0  0
 35 77  1  0  0  0
 36 37  1  0  0  0
 37 38  2  0  0  0
 37 78  1  0  0  0
 38 39  1  0  0  0
 38 79  1  0  0  0
 40 80  1  0  0  0
M  END
> <chembl_id>
CHEMBL4108931

> <chembl_pref_name>
None

> <i_m_ct_stereo_status>
1

> <s_m_source_file>
sdf/actives_sanitized.sdf

> <i_m_source_file_index>
135

> <i_lp_mmshare_version>
49012

> <i_f3d_flags>
0

> <s_epik_input>
W0NIM11PQyg9TylbTkhdYyhbY0hdW2NIXTEpW2NIXWMoYzEyKVtOSF1DKD1PKVtDQEhdKFtDSDNdKVtDSDJdW0NIMl1bQ0gyXVtDQEBIXShjM1tjSF1jMltjSF1bY0hdbjMpTjRbQ0gyXVtDSDJdQyg9W0NIXUM0PU8pW0NAQEhdNVtDSDJdW0NIMl1bQ0gyXVtDQEhdKFtDSDNdKVtDSDJdNQ==

> <s_epik_cmdline>
J2VwaWtfcHl0aG9uJywgJy1waHQnLCAnMC41JywgJy1waCcsICc3LjUnLCAnLW50JywgJy1tYScsICcyMDAnLCAnLWltYWUnLCAnPGluZmlsZS5tYWU+JywgJy1vbWFlJywgJzxvdXRmaWxlLm1hZT4n

> <r_lp_tautomer_probability>
1

> <r_epik_Ionization_Penalty>
  0.0001

> <r_epik_Ionization_Penalty_Charging>
  0.0000

> <r_epik_Ionization_Penalty_Neutral>
  0.0001

> <r_epik_State_Penalty>
 -0.0000

> <r_epik_Charging_Adjusted_Penalty>
0

> <i_epik_Tot_Q>
0

> <i_epik_Tot_abs_Q>
0

> <s_epik_Chemistry_Notes>
This compound has an ester and may undergo hydrolysis at high or low pH.

> <s_lp_Force_Field>
OPLS3e

> <r_lp_Energy>
86.558972

> <b_lp_Chiralities_Consistent>
1

> <s_lp_Variant>
sdf/actives_sanitized.sdf:135-1

$$$$
sdf/actives_sanitized.sdf:136
                    3D
 Schrodinger Suite 2020-1.
 70 74  0  0  1  0            999 V2000
   -9.5161    2.1880    2.2712 C   0  0  0  0  0  0
   -8.1908    1.9947    1.5015 C   0  0  2  0  0  0
   -7.2887    0.9436    2.2406 C   0  0  0  0  0  0
   -6.1593    0.2352    1.4391 C   0  0  0  0  0  0
   -4.8470    1.0400    1.2259 C   0  0  0  0  0  0
   -4.0942    0.7681   -0.1258 C   0  0  2  0  0  0
   -2.6164    0.7179    0.0226 N   0  0  0  0  0  0
   -1.9218   -0.4245   -0.6343 C   0  0  0  0  0  0
   -0.5181   -0.6902   -0.0300 C   0  0  0  0  0  0
    0.2267    0.6277    0.0603 C   0  0  0  0  0  0
   -0.4720    1.7406    0.3552 C   0  0  0  0  0  0
   -1.9124    1.8082    0.4838 C   0  0  0  0  0  0
   -2.4342    2.7933    1.0076 O   0  0  0  0  0  0
    1.7073    0.6315    0.1156 C   0  0  0  0  0  0
    2.3527    0.8010    1.3520 C   0  0  0  0  0  0
    1.6241    0.9858    2.4800 F   0  0  0  0  0  0
    3.7465    0.7731    1.4355 C   0  0  0  0  0  0
    4.5399    0.9881    2.9554 Cl  0  0  0  0  0  0
    4.5078    0.5613    0.2898 C   0  0  0  0  0  0
    3.8832    0.3800   -0.9408 C   0  0  0  0  0  0
    2.4828    0.4231   -1.0452 C   0  0  0  0  0  0
    1.8159    0.2338   -2.2755 N   0  0  0  0  0  0
    2.2506    0.5163   -3.5213 C   0  0  0  0  0  0
    3.3353    1.0288   -3.7967 O   0  0  0  0  0  0
    1.2769    0.1914   -4.6497 C   0  0  0  0  0  0
   -4.6036    1.6555   -1.2884 C   0  0  0  0  0  0
   -5.9547    1.9812   -1.3600 C   0  0  0  0  0  0
   -6.4211    2.9226   -2.2699 C   0  0  0  0  0  0
   -5.5125    3.4423   -3.1989 C   0  0  0  0  0  0
   -4.1779    3.0263   -3.1340 C   0  0  0  0  0  0
   -3.7151    2.1587   -2.1931 N   0  0  0  0  0  0
   -7.8489    3.3332   -2.1843 C   0  0  0  0  0  0
   -8.6702    3.2093   -3.3113 C   0  0  0  0  0  0
  -10.0302    3.5084   -3.2427 C   0  0  0  0  0  0
  -10.5898    3.9432   -2.0435 C   0  0  0  0  0  0
   -9.7879    4.0920   -0.9139 C   0  0  0  0  0  0
   -8.4233    3.7879   -0.9729 C   0  0  0  0  0  0
   -7.6278    4.0780    0.1504 N   0  0  0  0  0  0
   -7.5112    3.3766    1.3016 C   0  0  0  0  0  0
   -6.8460    3.8481    2.2228 O   0  0  0  0  0  0
  -10.1869    2.8799    1.7612 H   0  0  0  0  0  0
   -9.3473    2.5794    3.2758 H   0  0  0  0  0  0
  -10.0552    1.2453    2.3721 H   0  0  0  0  0  0
   -8.4634    1.5781    0.5321 H   0  0  0  0  0  0
   -6.8779    1.3659    3.1594 H   0  0  0  0  0  0
   -7.9443    0.1417    2.5847 H   0  0  0  0  0  0
   -5.8880   -0.6735    1.9787 H   0  0  0  0  0  0
   -6.5639   -0.1447    0.5020 H   0  0  0  0  0  0
   -5.0349    2.1085    1.3132 H   0  0  0  0  0  0
   -4.1920    0.8169    2.0699 H   0  0  0  0  0  0
   -4.3926   -0.2385   -0.4210 H   0  0  0  0  0  0
   -2.5555   -1.3049   -0.7446 H   0  0  0  0  0  0
   -1.7216   -0.0853   -1.6522 H   0  0  0  0  0  0
   -0.6424   -1.1016    0.9728 H   0  0  0  0  0  0
    0.0307   -1.4254   -0.6193 H   0  0  0  0  0  0
    0.0693    2.6617    0.5225 H   0  0  0  0  0  0
    5.5858    0.5285    0.3524 H   0  0  0  0  0  0
    4.5065    0.1930   -1.8019 H   0  0  0  0  0  0
    0.8595   -0.0780   -2.1920 H   0  0  0  0  0  0
    0.3110   -0.1399   -4.2660 H   0  0  0  0  0  0
    1.6840   -0.5988   -5.2805 H   0  0  0  0  0  0
    1.1114    1.0734   -5.2688 H   0  0  0  0  0  0
   -6.6594    1.5575   -0.6769 H   0  0  0  0  0  0
   -5.8265    4.1633   -3.9394 H   0  0  0  0  0  0
   -3.4485    3.4112   -3.8312 H   0  0  0  0  0  0
   -8.2572    2.8565   -4.2454 H   0  0  0  0  0  0
  -10.6511    3.3989   -4.1197 H   0  0  0  0  0  0
  -11.6424    4.1803   -1.9934 H   0  0  0  0  0  0
  -10.2270    4.4673   -0.0007 H   0  0  0  0  0  0
   -7.0662    4.9135    0.0723 H   0  0  0  0  0  0
  1  2  1  0  0  0
  1 41  1  0  0  0
  1 42  1  0  0  0
  1 43  1  0  0  0
  2  3  1  0  0  0
  2 39  1  0  0  0
  2 44  1  0  0  0
  3  4  1  0  0  0
  3 45  1  0  0  0
  3 46  1  0  0  0
  4  5  1  0  0  0
  4 47  1  0  0  0
  4 48  1  0  0  0
  5  6  1  0  0  0
  5 49  1  0  0  0
  5 50  1  0  0  0
  6  7  1  0  0  0
  6 26  1  0  0  0
  6 51  1  0  0  0
  7  8  1  0  0  0
  7 12  1  0  0  0
  8  9  1  0  0  0
  8 52  1  0  0  0
  8 53  1  0  0  0
  9 10  1  0  0  0
  9 54  1  0  0  0
  9 55  1  0  0  0
 10 11  2  0  0  0
 10 14  1  0  0  0
 11 12  1  0  0  0
 11 56  1  0  0  0
 12 13  2  0  0  0
 14 15  2  0  0  0
 14 21  1  0  0  0
 15 16  1  0  0  0
 15 17  1  0  0  0
 17 18  1  0  0  0
 17 19  2  0  0  0
 19 20  1  0  0  0
 19 57  1  0  0  0
 20 21  2  0  0  0
 20 58  1  0  0  0
 21 22  1  0  0  0
 22 23  1  0  0  0
 22 59  1  0  0  0
 23 24  2  0  0  0
 23 25  1  0  0  0
 25 60  1  0  0  0
 25 61  1  0  0  0
 25 62  1  0  0  0
 26 27  1  0  0  0
 26 31  2  0  0  0
 27 28  2  0  0  0
 27 63  1  0  0  0
 28 29  1  0  0  0
 28 32  1  0  0  0
 29 30  2  0  0  0
 29 64  1  0  0  0
 30 31  1  0  0  0
 30 65  1  0  0  0
 32 33  2  0  0  0
 32 37  1  0  0  0
 33 34  1  0  0  0
 33 66  1  0  0  0
 34 35  2  0  0  0
 34 67  1  0  0  0
 35 36  1  0  0  0
 35 68  1  0  0  0
 36 37  2  0  0  0
 36 69  1  0  0  0
 37 38  1  0  0  0
 38 39  1  0  0  0
 38 70  1  0  0  0
 39 40  2  0  0  0
M  END
> <chembl_id>
CHEMBL4108548

> <chembl_pref_name>
None

> <i_m_ct_stereo_status>
1

> <s_m_source_file>
sdf/actives_sanitized.sdf

> <i_m_source_file_index>
136

> <i_lp_mmshare_version>
49012

> <i_f3d_flags>
0

> <s_epik_input>
bjFbY0hdW2NIXWMoW2NIXWMxMiljM2MoW2NIXVtjSF1bY0hdW2NIXTMpW05IXUMoPU8pW0NASF0oW0NIM10pW0NIMl1bQ0gyXVtDSDJdW0NAQEhdMk40W0NIMl1bQ0gyXUMoPVtDSF1DND1PKWM1YyhGKWMoQ2wpW2NIXVtjSF1jNVtOSF1DKD1PKVtDSDNd

> <s_epik_cmdline>
J2VwaWtfcHl0aG9uJywgJy1waHQnLCAnMC41JywgJy1waCcsICc3LjUnLCAnLW50JywgJy1tYScsICcyMDAnLCAnLWltYWUnLCAnPGluZmlsZS5tYWU+JywgJy1vbWFlJywgJzxvdXRmaWxlLm1hZT4n

> <r_lp_tautomer_probability>
1

> <r_epik_Ionization_Penalty>
  0.0001

> <r_epik_Ionization_Penalty_Charging>
  0.0000

> <r_epik_Ionization_Penalty_Neutral>
  0.0001

> <r_epik_State_Penalty>
 -0.0000

> <r_epik_Charging_Adjusted_Penalty>
0

> <i_epik_Tot_Q>
0

> <i_epik_Tot_abs_Q>
0

> <s_lp_Force_Field>
OPLS3e

> <r_lp_Energy>
96.16823

> <b_lp_Chiralities_Consistent>
1

> <s_lp_Variant>
sdf/actives_sanitized.sdf:136-1

$$$$
sdf/actives_sanitized.sdf:137
                    3D
 Schrodinger Suite 2020-1.
 75 79  0  0  1  0            999 V2000
  -11.3354   -1.0467   -4.2614 C   0  0  0  0  0  0
  -10.0711   -0.4192   -4.0960 O   0  0  0  0  0  0
   -8.9519   -1.1526   -3.9309 C   0  0  0  0  0  0
   -8.9257   -2.3850   -3.9052 O   0  0  0  0  0  0
   -7.8755   -0.2820   -3.7889 N   0  0  0  0  0  0
   -6.5106   -0.5723   -3.6245 C   0  0  0  0  0  0
   -5.9487   -1.8493   -3.7727 C   0  0  0  0  0  0
   -4.5794   -2.0403   -3.5954 C   0  0  0  0  0  0
   -3.7413   -0.9723   -3.2625 C   0  0  0  0  0  0
   -4.3040    0.3171   -3.1308 C   0  0  0  0  0  0
   -3.4903    1.4497   -2.9490 N   0  0  0  0  0  0
   -3.3059    2.1813   -1.8262 C   0  0  0  0  0  0
   -2.6140    3.1969   -1.8836 O   0  0  0  0  0  0
   -3.9437    1.7864   -0.4671 C   0  0  2  0  0  0
   -5.2503    2.5867   -0.2691 C   0  0  0  0  0  0
   -2.9949    1.9991    0.7645 C   0  0  0  0  0  0
   -1.8802    0.9496    1.0305 C   0  0  0  0  0  0
   -0.5912    1.0667    0.1711 C   0  0  0  0  0  0
    0.1097   -0.2919   -0.1738 C   0  0  2  0  0  0
    1.5878   -0.1689   -0.1434 N   0  0  0  0  0  0
    2.2246    0.9061   -0.9590 C   0  0  0  0  0  0
    3.6814    0.5624   -1.3691 C   0  0  0  0  0  0
    4.4220    0.0387   -0.1534 C   0  0  0  0  0  0
    3.7425   -0.7150    0.7328 C   0  0  0  0  0  0
    2.3247   -0.9971    0.6664 C   0  0  0  0  0  0
    1.8566   -1.9487    1.2935 O   0  0  0  0  0  0
    5.9048    0.0844   -0.1160 C   0  0  0  0  0  0
    6.6315   -1.0887   -0.3852 C   0  0  0  0  0  0
    5.9764   -2.2449   -0.6546 F   0  0  0  0  0  0
    8.0307   -1.0820   -0.3847 C   0  0  0  0  0  0
    8.8049   -2.3588   -0.6685 C   0  0  0  0  0  0
    8.7146    0.1061   -0.1287 C   0  0  0  0  0  0
    8.0102    1.2795    0.1247 C   0  0  0  0  0  0
    6.6119    1.2822    0.1305 C   0  0  0  0  0  0
    5.9347    2.5466    0.4132 C   0  0  0  0  0  0
    5.3978    3.5471    0.6365 N   0  0  0  0  0  0
   -0.4345   -0.9116   -1.4816 C   0  0  0  0  0  0
   -1.8003   -0.8585   -1.7461 C   0  0  0  0  0  0
   -2.3022   -1.2241   -2.9899 C   0  0  0  0  0  0
   -1.4160   -1.7723   -3.9236 C   0  0  0  0  0  0
   -0.0630   -1.8723   -3.5811 C   0  0  0  0  0  0
    0.4356   -1.4359   -2.3926 N   0  0  0  0  0  0
   -5.6770    0.5059   -3.3192 C   0  0  0  0  0  0
  -12.1099   -0.2905   -4.3889 H   0  0  0  0  0  0
  -11.5901   -1.6501   -3.3889 H   0  0  0  0  0  0
  -11.3417   -1.6907   -5.1420 H   0  0  0  0  0  0
   -8.1038    0.7013   -3.8016 H   0  0  0  0  0  0
   -6.5453   -2.7099   -4.0285 H   0  0  0  0  0  0
   -4.1715   -3.0357   -3.6974 H   0  0  0  0  0  0
   -2.9620    1.7303   -3.7623 H   0  0  0  0  0  0
   -4.2317    0.7356   -0.4906 H   0  0  0  0  0  0
   -5.9502    2.4386   -1.0918 H   0  0  0  0  0  0
   -5.0598    3.6586   -0.1929 H   0  0  0  0  0  0
   -5.7667    2.2794    0.6411 H   0  0  0  0  0  0
   -2.5625    3.0011    0.7524 H   0  0  0  0  0  0
   -3.6198    1.9889    1.6592 H   0  0  0  0  0  0
   -1.5731    1.0475    2.0731 H   0  0  0  0  0  0
   -2.3088   -0.0508    0.9938 H   0  0  0  0  0  0
   -0.7877    1.6080   -0.7530 H   0  0  0  0  0  0
    0.0956    1.7167    0.7160 H   0  0  0  0  0  0
   -0.2056   -0.9949    0.5987 H   0  0  0  0  0  0
    1.5866    1.2348   -1.7800 H   0  0  0  0  0  0
    2.3023    1.7673   -0.2937 H   0  0  0  0  0  0
    3.6501   -0.2189   -2.1298 H   0  0  0  0  0  0
    4.1794    1.4263   -1.8102 H   0  0  0  0  0  0
    4.2885   -1.1832    1.5401 H   0  0  0  0  0  0
    9.8819   -2.1906   -0.7099 H   0  0  0  0  0  0
    8.4931   -2.7829   -1.6236 H   0  0  0  0  0  0
    8.5981   -3.1029    0.1011 H   0  0  0  0  0  0
    9.7949    0.1258   -0.1271 H   0  0  0  0  0  0
    8.5664    2.1867    0.3178 H   0  0  0  0  0  0
   -2.4887   -0.4743   -1.0219 H   0  0  0  0  0  0
   -1.7601   -2.0891   -4.8975 H   0  0  0  0  0  0
    0.6517   -2.2818   -4.2794 H   0  0  0  0  0  0
   -6.0932    1.5012   -3.2459 H   0  0  0  0  0  0
  1  2  1  0  0  0
  1 44  1  0  0  0
  1 45  1  0  0  0
  1 46  1  0  0  0
  2  3  1  0  0  0
  3  4  2  0  0  0
  3  5  1  0  0  0
  5  6  1  0  0  0
  5 47  1  0  0  0
  6  7  2  0  0  0
  6 43  1  0  0  0
  7  8  1  0  0  0
  7 48  1  0  0  0
  8  9  2  0  0  0
  8 49  1  0  0  0
  9 10  1  0  0  0
  9 39  1  0  0  0
 10 11  1  0  0  0
 10 43  2  0  0  0
 11 12  1  0  0  0
 11 50  1  0  0  0
 12 13  2  0  0  0
 12 14  1  0  0  0
 14 15  1  0  0  0
 14 16  1  0  0  0
 14 51  1  0  0  0
 15 52  1  0  0  0
 15 53  1  0  0  0
 15 54  1  0  0  0
 16 17  1  0  0  0
 16 55  1  0  0  0
 16 56  1  0  0  0
 17 18  1  0  0  0
 17 57  1  0  0  0
 17 58  1  0  0  0
 18 19  1  0  0  0
 18 59  1  0  0  0
 18 60  1  0  0  0
 19 20  1  0  0  0
 19 37  1  0  0  0
 19 61  1  0  0  0
 20 21  1  0  0  0
 20 25  1  0  0  0
 21 22  1  0  0  0
 21 62  1  0  0  0
 21 63  1  0  0  0
 22 23  1  0  0  0
 22 64  1  0  0  0
 22 65  1  0  0  0
 23 24  2  0  0  0
 23 27  1  0  0  0
 24 25  1  0  0  0
 24 66  1  0  0  0
 25 26  2  0  0  0
 27 28  2  0  0  0
 27 34  1  0  0  0
 28 29  1  0  0  0
 28 30  1  0  0  0
 30 31  1  0  0  0
 30 32  2  0  0  0
 31 67  1  0  0  0
 31 68  1  0  0  0
 31 69  1  0  0  0
 32 33  1  0  0  0
 32 70  1  0  0  0
 33 34  2  0  0  0
 33 71  1  0  0  0
 34 35  1  0  0  0
 35 36  3  0  0  0
 37 38  1  0  0  0
 37 42  2  0  0  0
 38 39  2  0  0  0
 38 72  1  0  0  0
 39 40  1  0  0  0
 40 41  2  0  0  0
 40 73  1  0  0  0
 41 42  1  0  0  0
 41 74  1  0  0  0
 43 75  1  0  0  0
M  END
> <chembl_id>
CHEMBL4113824

> <chembl_pref_name>
None

> <i_m_ct_stereo_status>
1

> <s_m_source_file>
sdf/actives_sanitized.sdf

> <i_m_source_file_index>
137

> <i_lp_mmshare_version>
49012

> <i_f3d_flags>
0

> <s_epik_input>
W0NIM11PQyg9TylbTkhdYyhbY0hdW2NIXTEpW2NIXWMoYzEyKVtOSF1DKD1PKVtDQEhdKFtDSDNdKVtDSDJdW0NIMl1bQ0gyXVtDQEBIXShjM1tjSF1jMltjSF1bY0hdbjMpTjRbQ0gyXVtDSDJdQyg9W0NIXUM0PU8pYzVjKEYpYyhbQ0gzXSlbY0hdW2NIXWM1QyNO

> <s_epik_cmdline>
J2VwaWtfcHl0aG9uJywgJy1waHQnLCAnMC41JywgJy1waCcsICc3LjUnLCAnLW50JywgJy1tYScsICcyMDAnLCAnLWltYWUnLCAnPGluZmlsZS5tYWU+JywgJy1vbWFlJywgJzxvdXRmaWxlLm1hZT4n

> <r_lp_tautomer_probability>
1

> <r_epik_Ionization_Penalty>
  0.0001

> <r_epik_Ionization_Penalty_Charging>
  0.0000

> <r_epik_Ionization_Penalty_Neutral>
  0.0001

> <r_epik_State_Penalty>
 -0.0000

> <r_epik_Charging_Adjusted_Penalty>
0

> <i_epik_Tot_Q>
0

> <i_epik_Tot_abs_Q>
0

> <s_epik_Chemistry_Notes>
This compound has an ester and may undergo hydrolysis at high or low pH.

> <s_lp_Force_Field>
OPLS3e

> <r_lp_Energy>
95.977392

> <b_lp_Chiralities_Consistent>
1

> <s_lp_Variant>
sdf/actives_sanitized.sdf:137-1

$$$$
sdf/actives_sanitized.sdf:138
                    3D
 Schrodinger Suite 2020-1.
 69 74  0  0  1  0            999 V2000
   -5.3196    1.7386   -1.1731 C   0  0  0  0  0  0
   -4.1771    0.9161   -1.8039 C   0  0  2  0  0  0
   -2.8132    1.6634   -1.7247 C   0  0  0  0  0  0
   -2.1732    1.7227   -0.3119 C   0  0  0  0  0  0
   -0.6210    1.6552   -0.3026 C   0  0  0  0  0  0
   -0.0117    0.2174   -0.2625 C   0  0  2  0  0  0
    1.4638    0.1821   -0.0828 N   0  0  0  0  0  0
    2.3339    1.1672   -0.7924 C   0  0  0  0  0  0
    3.7109    1.3407   -0.0992 C   0  0  0  0  0  0
    4.3028   -0.0334    0.1644 C   0  0  0  0  0  0
    3.4556   -1.0297    0.4916 C   0  0  0  0  0  0
    2.0120   -0.9225    0.5281 C   0  0  0  0  0  0
    1.3537   -1.7779    1.1235 O   0  0  0  0  0  0
    5.7651   -0.2097    0.3477 C   0  0  0  0  0  0
    6.4379   -1.2645   -0.2937 C   0  0  0  0  0  0
    5.7670   -2.1280   -1.0930 F   0  0  0  0  0  0
    7.8125   -1.4338   -0.1316 C   0  0  0  0  0  0
    8.5370   -0.5549    0.6689 C   0  0  0  0  0  0
    7.8878    0.4971    1.3113 C   0  0  0  0  0  0
    8.8009    1.5773    2.3042 Cl  0  0  0  0  0  0
    6.5093    0.6714    1.1531 C   0  0  0  0  0  0
    5.8983    1.6916    1.8021 F   0  0  0  0  0  0
   -0.5171   -0.6419   -1.4250 C   0  0  0  0  0  0
   -1.6974   -1.3699   -1.2694 C   0  0  0  0  0  0
   -2.3121   -1.9211   -2.3960 C   0  0  0  0  0  0
   -1.6505   -1.8382   -3.6273 C   0  0  0  0  0  0
   -0.4213   -1.1772   -3.6877 C   0  0  0  0  0  0
    0.1411   -0.5644   -2.6142 N   0  0  0  0  0  0
   -3.6750   -2.4940   -2.2690 C   0  0  0  0  0  0
   -3.8483   -3.6492   -1.4963 C   0  0  0  0  0  0
   -5.1078   -4.2325   -1.3079 C   0  0  0  0  0  0
   -5.2507   -5.4868   -0.4667 C   0  0  0  0  0  0
   -6.6382   -5.9678   -0.3710 C   0  0  0  0  0  0
   -7.6483   -5.3232   -0.9895 C   0  0  0  0  0  0
   -8.8820   -5.6774   -0.9558 O   0  5  0  0  0  0
   -7.4935   -4.1889   -1.7469 N   0  0  0  0  0  0
   -6.2219   -3.6168   -1.9232 C   0  0  0  0  0  0
   -6.0709   -2.4635   -2.6895 C   0  0  0  0  0  0
   -4.8092   -1.8883   -2.8527 C   0  0  0  0  0  0
   -4.7431   -0.7388   -3.6566 N   0  0  0  0  0  0
   -4.5098    0.5372   -3.2719 C   0  0  0  0  0  0
   -4.5609    1.4348   -4.1124 O   0  0  0  0  0  0
   -4.2943   -6.0394    0.0768 O   0  0  0  0  0  0
   -6.2675    1.1998   -1.2130 H   0  0  0  0  0  0
   -5.4624    2.6927   -1.6831 H   0  0  0  0  0  0
   -5.1167    1.9530   -0.1233 H   0  0  0  0  0  0
   -4.0969    0.0043   -1.2165 H   0  0  0  0  0  0
   -2.1113    1.1956   -2.4142 H   0  0  0  0  0  0
   -2.9193    2.6783   -2.1122 H   0  0  0  0  0  0
   -2.4926    2.6506    0.1647 H   0  0  0  0  0  0
   -2.5674    0.9317    0.3271 H   0  0  0  0  0  0
   -0.2453    2.2187   -1.1567 H   0  0  0  0  0  0
   -0.2704    2.1887    0.5823 H   0  0  0  0  0  0
   -0.4365   -0.2217    0.6425 H   0  0  0  0  0  0
    2.5672    0.7005   -1.7509 H   0  0  0  0  0  0
    1.8386    2.1010   -1.0485 H   0  0  0  0  0  0
    4.3798    1.9528   -0.7051 H   0  0  0  0  0  0
    3.5499    1.8619    0.8454 H   0  0  0  0  0  0
    3.8678   -1.9848    0.7864 H   0  0  0  0  0  0
    8.3189   -2.2466   -0.6313 H   0  0  0  0  0  0
    9.6019   -0.6913    0.7888 H   0  0  0  0  0  0
   -2.1993   -1.3942   -0.3126 H   0  0  0  0  0  0
   -2.0888   -2.2595   -4.5205 H   0  0  0  0  0  0
    0.1135   -1.0954   -4.6224 H   0  0  0  0  0  0
   -2.9777   -4.0978   -1.0371 H   0  0  0  0  0  0
   -6.8577   -6.8554    0.2051 H   0  0  0  0  0  0
   -8.3018   -3.7638   -2.1757 H   0  0  0  0  0  0
   -6.9377   -2.0103   -3.1508 H   0  0  0  0  0  0
   -5.0226   -0.8736   -4.6172 H   0  0  0  0  0  0
  1  2  1  0  0  0
  1 44  1  0  0  0
  1 45  1  0  0  0
  1 46  1  0  0  0
  2  3  1  0  0  0
  2 41  1  0  0  0
  2 47  1  0  0  0
  3  4  1  0  0  0
  3 48  1  0  0  0
  3 49  1  0  0  0
  4  5  1  0  0  0
  4 50  1  0  0  0
  4 51  1  0  0  0
  5  6  1  0  0  0
  5 52  1  0  0  0
  5 53  1  0  0  0
  6  7  1  0  0  0
  6 23  1  0  0  0
  6 54  1  0  0  0
  7  8  1  0  0  0
  7 12  1  0  0  0
  8  9  1  0  0  0
  8 55  1  0  0  0
  8 56  1  0  0  0
  9 10  1  0  0  0
  9 57  1  0  0  0
  9 58  1  0  0  0
 10 11  2  0  0  0
 10 14  1  0  0  0
 11 12  1  0  0  0
 11 59  1  0  0  0
 12 13  2  0  0  0
 14 15  2  0  0  0
 14 21  1  0  0  0
 15 16  1  0  0  0
 15 17  1  0  0  0
 17 18  2  0  0  0
 17 60  1  0  0  0
 18 19  1  0  0  0
 18 61  1  0  0  0
 19 20  1  0  0  0
 19 21  2  0  0  0
 21 22  1  0  0  0
 23 24  1  0  0  0
 23 28  2  0  0  0
 24 25  2  0  0  0
 24 62  1  0  0  0
 25 26  1  0  0  0
 25 29  1  0  0  0
 26 27  2  0  0  0
 26 63  1  0  0  0
 27 28  1  0  0  0
 27 64  1  0  0  0
 29 30  1  0  0  0
 29 39  2  0  0  0
 30 31  2  0  0  0
 30 65  1  0  0  0
 31 32  1  0  0  0
 31 37  1  0  0  0
 32 33  1  0  0  0
 32 43  2  0  0  0
 33 34  2  0  0  0
 33 66  1  0  0  0
 34 35  1  0  0  0
 34 36  1  0  0  0
 36 37  1  0  0  0
 36 67  1  0  0  0
 37 38  2  0  0  0
 38 39  1  0  0  0
 38 68  1  0  0  0
 39 40  1  0  0  0
 40 41  1  0  0  0
 40 69  1  0  0  0
 41 42  2  0  0  0
M  CHG  1  35  -1
M  END
> <chembl_id>
CHEMBL4108927

> <chembl_pref_name>
None

> <i_m_ct_stereo_status>
1

> <s_m_source_file>
sdf/actives_sanitized.sdf

> <i_m_source_file_index>
138

> <i_lp_mmshare_version>
49012

> <i_f3d_flags>
0

> <s_epik_input>
Tz1jKFtuSF0xKVtjSF1jKFtPSF0pYyhbY0hdMiljMVtjSF1jKGMyYyhbY0hdYzM0KVtjSF1bY0hdbjQpW05IXUMoPU8pW0NASF0oW0NIM10pW0NIMl1bQ0gyXVtDSDJdW0NAQEhdM041W0NIMl1bQ0gyXUMoPVtDSF1DNT1PKWM2YyhGKVtjSF1bY0hdYyhDbCljNkY=

> <s_epik_cmdline>
J2VwaWtfcHl0aG9uJywgJy1waHQnLCAnMC41JywgJy1waCcsICc3LjUnLCAnLW50JywgJy1tYScsICcyMDAnLCAnLWltYWUnLCAnPGluZmlsZS5tYWU+JywgJy1vbWFlJywgJzxvdXRmaWxlLm1hZT4n

> <r_lp_tautomer_probability>
1

> <r_epik_Ionization_Penalty>
  0.0064

> <r_epik_Ionization_Penalty_Charging>
  0.0063

> <r_epik_Ionization_Penalty_Neutral>
  0.0001

> <r_epik_State_Penalty>
 -0.0000

> <r_epik_Charging_Adjusted_Penalty>
0.006304480486367

> <i_epik_Tot_Q>
-1

> <i_epik_Tot_abs_Q>
1

> <s_lp_Force_Field>
OPLS3e

> <r_lp_Energy>
81.193501

> <b_lp_Chiralities_Consistent>
1

> <s_lp_Variant>
sdf/actives_sanitized.sdf:138-1

$$$$
sdf/actives_sanitized.sdf:139
                    3D
 Schrodinger Suite 2020-1.
 63 67  0  0  1  0            999 V2000
   -5.0630    3.0697   -0.7307 C   0  0  0  0  0  0
   -3.8202    2.1545   -0.7978 C   0  0  2  0  0  0
   -2.9013    2.4107    0.4477 C   0  0  0  0  0  0
   -1.8827    1.3100    0.8540 C   0  0  0  0  0  0
   -0.5607    1.2504    0.0409 C   0  0  0  0  0  0
    0.0446   -0.1817   -0.1540 C   0  0  2  0  0  0
    1.5263   -0.1610   -0.0754 N   0  0  0  0  0  0
    2.2675    0.7837   -0.9623 C   0  0  0  0  0  0
    3.7131    0.3093   -1.2692 C   0  0  0  0  0  0
    4.3627   -0.1373    0.0247 C   0  0  0  0  0  0
    3.6022   -0.7493    0.9517 C   0  0  0  0  0  0
    2.1721   -0.9463    0.8475 C   0  0  0  0  0  0
    1.6149   -1.7957    1.5446 O   0  0  0  0  0  0
    5.8316   -0.1612    0.1387 C   0  0  0  0  0  0
    6.5229    0.9167    0.7145 C   0  0  0  0  0  0
    5.5969    2.4505    1.3736 Br  0  0  0  0  0  0
    7.9142    0.8843    0.8138 C   0  0  0  0  0  0
    8.6270   -0.2151    0.3412 C   0  0  0  0  0  0
    7.9511   -1.2897   -0.2348 C   0  0  0  0  0  0
    8.8493   -2.6456   -0.8180 Cl  0  0  0  0  0  0
    6.5570   -1.2639   -0.3375 C   0  0  0  0  0  0
    5.9077   -2.3115   -0.9013 F   0  0  0  0  0  0
   -0.5018   -0.8744   -1.4238 C   0  0  0  0  0  0
   -1.8536   -0.7599   -1.7383 C   0  0  0  0  0  0
   -2.3403   -1.1940   -2.9667 C   0  0  0  0  0  0
   -1.4625   -1.8683   -3.8226 C   0  0  0  0  0  0
   -0.1302   -2.0245   -3.4255 C   0  0  0  0  0  0
    0.3591   -1.5249   -2.2587 N   0  0  0  0  0  0
   -3.7508   -0.8704   -3.3138 C   0  0  0  0  0  0
   -4.6696   -1.8982   -3.5753 C   0  0  0  0  0  0
   -4.2730   -3.1928   -3.5661 F   0  0  0  0  0  0
   -6.0101   -1.6061   -3.8257 C   0  0  0  0  0  0
   -6.4535   -0.2861   -3.8225 C   0  0  0  0  0  0
   -7.7540   -0.0092   -4.0680 F   0  0  0  0  0  0
   -5.5545    0.7498   -3.5815 C   0  0  0  0  0  0
   -4.2090    0.4684   -3.3240 C   0  0  0  0  0  0
   -3.3107    1.5450   -3.2157 N   0  0  0  0  0  0
   -3.1063    2.3658   -2.1600 C   0  0  0  0  0  0
   -2.3341    3.3155   -2.2839 O   0  0  0  0  0  0
   -5.7465    2.8936   -1.5614 H   0  0  0  0  0  0
   -4.7886    4.1258   -0.7537 H   0  0  0  0  0  0
   -5.6306    2.8984    0.1845 H   0  0  0  0  0  0
   -4.1905    1.1315   -0.7345 H   0  0  0  0  0  0
   -2.3911    3.3718    0.3624 H   0  0  0  0  0  0
   -3.5558    2.5318    1.3126 H   0  0  0  0  0  0
   -1.6050    1.4817    1.8952 H   0  0  0  0  0  0
   -2.3874    0.3460    0.8904 H   0  0  0  0  0  0
   -0.6828    1.7174   -0.9350 H   0  0  0  0  0  0
    0.1552    1.8951    0.5538 H   0  0  0  0  0  0
   -0.3484   -0.7880    0.6635 H   0  0  0  0  0  0
    1.6864    1.0731   -1.8384 H   0  0  0  0  0  0
    2.3796    1.6986   -0.3784 H   0  0  0  0  0  0
    3.6615   -0.5382   -1.9543 H   0  0  0  0  0  0
    4.2896    1.0944   -1.7596 H   0  0  0  0  0  0
    4.0833   -1.1590    1.8291 H   0  0  0  0  0  0
    8.4438    1.7144    1.2578 H   0  0  0  0  0  0
    9.7040   -0.2307    0.4224 H   0  0  0  0  0  0
   -2.5374   -0.2742   -1.0723 H   0  0  0  0  0  0
   -1.7962   -2.2411   -4.7800 H   0  0  0  0  0  0
    0.5772   -2.5334   -4.0634 H   0  0  0  0  0  0
   -6.7088   -2.4069   -4.0187 H   0  0  0  0  0  0
   -5.9032    1.7717   -3.6198 H   0  0  0  0  0  0
   -2.7324    1.7020   -4.0283 H   0  0  0  0  0  0
  1  2  1  0  0  0
  1 40  1  0  0  0
  1 41  1  0  0  0
  1 42  1  0  0  0
  2  3  1  0  0  0
  2 38  1  0  0  0
  2 43  1  0  0  0
  3  4  1  0  0  0
  3 44  1  0  0  0
  3 45  1  0  0  0
  4  5  1  0  0  0
  4 46  1  0  0  0
  4 47  1  0  0  0
  5  6  1  0  0  0
  5 48  1  0  0  0
  5 49  1  0  0  0
  6  7  1  0  0  0
  6 23  1  0  0  0
  6 50  1  0  0  0
  7  8  1  0  0  0
  7 12  1  0  0  0
  8  9  1  0  0  0
  8 51  1  0  0  0
  8 52  1  0  0  0
  9 10  1  0  0  0
  9 53  1  0  0  0
  9 54  1  0  0  0
 10 11  2  0  0  0
 10 14  1  0  0  0
 11 12  1  0  0  0
 11 55  1  0  0  0
 12 13  2  0  0  0
 14 15  2  0  0  0
 14 21  1  0  0  0
 15 16  1  0  0  0
 15 17  1  0  0  0
 17 18  2  0  0  0
 17 56  1  0  0  0
 18 19  1  0  0  0
 18 57  1  0  0  0
 19 20  1  0  0  0
 19 21  2  0  0  0
 21 22  1  0  0  0
 23 24  1  0  0  0
 23 28  2  0  0  0
 24 25  2  0  0  0
 24 58  1  0  0  0
 25 26  1  0  0  0
 25 29  1  0  0  0
 26 27  2  0  0  0
 26 59  1  0  0  0
 27 28  1  0  0  0
 27 60  1  0  0  0
 29 30  2  0  0  0
 29 36  1  0  0  0
 30 31  1  0  0  0
 30 32  1  0  0  0
 32 33  2  0  0  0
 32 61  1  0  0  0
 33 34  1  0  0  0
 33 35  1  0  0  0
 35 36  2  0  0  0
 35 62  1  0  0  0
 36 37  1  0  0  0
 37 38  1  0  0  0
 37 63  1  0  0  0
 38 39  2  0  0  0
M  END
> <chembl_id>
CHEMBL4106971

> <chembl_pref_name>
None

> <i_m_ct_stereo_status>
1

> <s_m_source_file>
sdf/actives_sanitized.sdf

> <i_m_source_file_index>
139

> <i_lp_mmshare_version>
49012

> <i_f3d_flags>
0

> <s_epik_input>
bjFbY0hdW2NIXWMoW2NIXWMxMiljM2MoW2NIXWMoRilbY0hdYzNGKVtOSF1DKD1PKVtDQEhdKFtDSDNdKVtDSDJdW0NIMl1bQ0gyXVtDQEBIXTJONFtDSDJdW0NIMl1DKD1bQ0hdQzQ9TyljNWMoQnIpW2NIXVtjSF1jKENsKWM1Rg==

> <s_epik_cmdline>
J2VwaWtfcHl0aG9uJywgJy1waHQnLCAnMC41JywgJy1waCcsICc3LjUnLCAnLW50JywgJy1tYScsICcyMDAnLCAnLWltYWUnLCAnPGluZmlsZS5tYWU+JywgJy1vbWFlJywgJzxvdXRmaWxlLm1hZT4n

> <r_lp_tautomer_probability>
1

> <r_epik_Ionization_Penalty>
  0.0001

> <r_epik_Ionization_Penalty_Charging>
  0.0000

> <r_epik_Ionization_Penalty_Neutral>
  0.0001

> <r_epik_State_Penalty>
 -0.0000

> <r_epik_Charging_Adjusted_Penalty>
0

> <i_epik_Tot_Q>
0

> <i_epik_Tot_abs_Q>
0

> <s_lp_Force_Field>
OPLS3e

> <r_lp_Energy>
85.887815

> <b_lp_Chiralities_Consistent>
1

> <s_lp_Variant>
sdf/actives_sanitized.sdf:139-1

$$$$
sdf/actives_sanitized.sdf:140
                    3D
 Schrodinger Suite 2020-1.
 68 73  0  0  1  0            999 V2000
   -5.4169    0.4247    0.9549 C   0  0  0  0  0  0
   -4.2424    0.3506   -0.0430 C   0  0  2  0  0  0
   -3.0962    1.3408    0.3712 C   0  0  0  0  0  0
   -2.0756    1.8190   -0.7064 C   0  0  0  0  0  0
   -0.5692    1.6640   -0.3574 C   0  0  0  0  0  0
   -0.0291    0.2016   -0.2871 C   0  0  2  0  0  0
    1.4421    0.1012   -0.1342 N   0  0  0  0  0  0
    2.3279    0.9837   -0.9523 C   0  0  0  0  0  0
    3.7471    0.3949   -1.1774 C   0  0  0  0  0  0
    4.2638   -0.1575    0.1361 C   0  0  0  0  0  0
    3.3850   -0.7468    0.9688 C   0  0  0  0  0  0
    1.9573   -0.8170    0.7479 C   0  0  0  0  0  0
    1.2859   -1.6700    1.3314 O   0  0  0  0  0  0
    5.7188   -0.3375    0.3411 C   0  0  0  0  0  0
    6.4806    0.7889    0.6908 C   0  0  0  0  0  0
    5.8869    2.0030    0.7981 F   0  0  0  0  0  0
    7.8508    0.6741    0.9390 C   0  0  0  0  0  0
    8.7854    2.0632    1.3673 Cl  0  0  0  0  0  0
    8.4738   -0.5677    0.8486 C   0  0  0  0  0  0
    7.7342   -1.6955    0.5046 C   0  0  0  0  0  0
    6.3631   -1.5931    0.2402 C   0  0  0  0  0  0
    5.6750   -2.7765   -0.1098 N   0  0  0  0  0  0
    5.7118   -4.0073    0.5042 C   0  0  0  0  0  0
    4.9592   -4.8700   -0.1298 N   0  0  0  0  0  0
    4.4294   -4.1644   -1.2057 N   0  0  0  0  0  0
    4.8911   -2.8616   -1.1947 N   0  0  0  0  0  0
   -0.5767   -0.6580   -1.4257 C   0  0  0  0  0  0
   -1.6528   -1.5026   -1.1650 C   0  0  0  0  0  0
   -2.4113   -1.9833   -2.2325 C   0  0  0  0  0  0
   -1.9685   -1.7363   -3.5371 C   0  0  0  0  0  0
   -0.8108   -0.9746   -3.7184 C   0  0  0  0  0  0
   -0.1300   -0.4098   -2.6874 N   0  0  0  0  0  0
   -3.7101   -2.6373   -1.9538 C   0  0  0  0  0  0
   -3.7343   -4.0003   -1.6379 C   0  0  0  0  0  0
   -4.9336   -4.6410   -1.3293 C   0  0  0  0  0  0
   -4.9347   -5.9595   -1.0276 F   0  0  0  0  0  0
   -6.1282   -3.9224   -1.3309 C   0  0  0  0  0  0
   -7.2937   -4.5413   -1.0339 F   0  0  0  0  0  0
   -6.1233   -2.5637   -1.6415 C   0  0  0  0  0  0
   -4.9228   -1.9125   -1.9428 C   0  0  0  0  0  0
   -4.9969   -0.5535   -2.2925 N   0  0  0  0  0  0
   -4.7747    0.5146   -1.4918 C   0  0  0  0  0  0
   -5.0050    1.6470   -1.9139 O   0  0  0  0  0  0
   -6.1755   -0.3298    0.7392 H   0  0  0  0  0  0
   -5.9087    1.3984    0.9304 H   0  0  0  0  0  0
   -5.0760    0.2535    1.9766 H   0  0  0  0  0  0
   -3.8453   -0.6526    0.0671 H   0  0  0  0  0  0
   -3.5517    2.2412    0.7880 H   0  0  0  0  0  0
   -2.5541    0.8979    1.2080 H   0  0  0  0  0  0
   -2.2583    1.3470   -1.6699 H   0  0  0  0  0  0
   -2.2650    2.8763   -0.8985 H   0  0  0  0  0  0
   -0.0126    2.2284   -1.1052 H   0  0  0  0  0  0
   -0.3696    2.1643    0.5911 H   0  0  0  0  0  0
   -0.4757   -0.1939    0.6273 H   0  0  0  0  0  0
    1.8438    1.3235   -1.8676 H   0  0  0  0  0  0
    2.4628    1.8862   -0.3544 H   0  0  0  0  0  0
    3.6681   -0.4161   -1.9024 H   0  0  0  0  0  0
    4.4211    1.1423   -1.5971 H   0  0  0  0  0  0
    3.7609   -1.2461    1.8509 H   0  0  0  0  0  0
    9.5325   -0.6598    1.0442 H   0  0  0  0  0  0
    8.2379   -2.6492    0.4352 H   0  0  0  0  0  0
    6.2993   -4.1704    1.3958 H   0  0  0  0  0  0
   -1.9749   -1.6669   -0.1476 H   0  0  0  0  0  0
   -2.5222   -2.1017   -4.3897 H   0  0  0  0  0  0
   -0.4427   -0.7607   -4.7109 H   0  0  0  0  0  0
   -2.8147   -4.5680   -1.6274 H   0  0  0  0  0  0
   -7.0568   -2.0188   -1.6461 H   0  0  0  0  0  0
   -5.3573   -0.3628   -3.2161 H   0  0  0  0  0  0
  1  2  1  0  0  0
  1 44  1  0  0  0
  1 45  1  0  0  0
  1 46  1  0  0  0
  2  3  1  0  0  0
  2 42  1  0  0  0
  2 47  1  0  0  0
  3  4  1  0  0  0
  3 48  1  0  0  0
  3 49  1  0  0  0
  4  5  1  0  0  0
  4 50  1  0  0  0
  4 51  1  0  0  0
  5  6  1  0  0  0
  5 52  1  0  0  0
  5 53  1  0  0  0
  6  7  1  0  0  0
  6 27  1  0  0  0
  6 54  1  0  0  0
  7  8  1  0  0  0
  7 12  1  0  0  0
  8  9  1  0  0  0
  8 55  1  0  0  0
  8 56  1  0  0  0
  9 10  1  0  0  0
  9 57  1  0  0  0
  9 58  1  0  0  0
 10 11  2  0  0  0
 10 14  1  0  0  0
 11 12  1  0  0  0
 11 59  1  0  0  0
 12 13  2  0  0  0
 14 15  2  0  0  0
 14 21  1  0  0  0
 15 16  1  0  0  0
 15 17  1  0  0  0
 17 18  1  0  0  0
 17 19  2  0  0  0
 19 20  1  0  0  0
 19 60  1  0  0  0
 20 21  2  0  0  0
 20 61  1  0  0  0
 21 22  1  0  0  0
 22 23  1  0  0  0
 22 26  1  0  0  0
 23 24  2  0  0  0
 23 62  1  0  0  0
 24 25  1  0  0  0
 25 26  2  0  0  0
 27 28  1  0  0  0
 27 32  2  0  0  0
 28 29  2  0  0  0
 28 63  1  0  0  0
 29 30  1  0  0  0
 29 33  1  0  0  0
 30 31  2  0  0  0
 30 64  1  0  0  0
 31 32  1  0  0  0
 31 65  1  0  0  0
 33 34  2  0  0  0
 33 40  1  0  0  0
 34 35  1  0  0  0
 34 66  1  0  0  0
 35 36  1  0  0  0
 35 37  2  0  0  0
 37 38  1  0  0  0
 37 39  1  0  0  0
 39 40  2  0  0  0
 39 67  1  0  0  0
 40 41  1  0  0  0
 41 42  1  0  0  0
 41 68  1  0  0  0
 42 43  2  0  0  0
M  END
> <chembl_id>
CHEMBL4108033

> <chembl_pref_name>
None

> <i_m_ct_stereo_status>
1

> <s_m_source_file>
sdf/actives_sanitized.sdf

> <i_m_source_file_index>
140

> <i_lp_mmshare_version>
49012

> <i_f3d_flags>
0

> <s_epik_input>
bjFbY0hdW2NIXWMoW2NIXWMxMiljM2MoW2NIXWMoRiljKEYpW2NIXTMpW05IXUMoPU8pW0NASF0oW0NIM10pW0NIMl1bQ0gyXVtDSDJdW0NAQEhdMk40W0NIMl1bQ0gyXUMoPVtDSF1DND1PKWM1YyhGKWMoQ2wpW2NIXVtjSF1jNS1uNltjSF1ubm42

> <s_epik_cmdline>
J2VwaWtfcHl0aG9uJywgJy1waHQnLCAnMC41JywgJy1waCcsICc3LjUnLCAnLW50JywgJy1tYScsICcyMDAnLCAnLWltYWUnLCAnPGluZmlsZS5tYWU+JywgJy1vbWFlJywgJzxvdXRmaWxlLm1hZT4n

> <r_lp_tautomer_probability>
1

> <r_epik_Ionization_Penalty>
  0.0001

> <r_epik_Ionization_Penalty_Charging>
  0.0000

> <r_epik_Ionization_Penalty_Neutral>
  0.0001

> <r_epik_State_Penalty>
 -0.0000

> <r_epik_Charging_Adjusted_Penalty>
0

> <i_epik_Tot_Q>
0

> <i_epik_Tot_abs_Q>
0

> <s_lp_Force_Field>
OPLS3e

> <r_lp_Energy>
100.882706

> <b_lp_Chiralities_Consistent>
1

> <s_lp_Variant>
sdf/actives_sanitized.sdf:140-1

$$$$
sdf/actives_sanitized.sdf:141
                    3D
 Schrodinger Suite 2020-1.
 48 51  0  0  1  0            999 V2000
    0.3091    0.1237   -0.2177 O   0  0  0  0  0  0
    4.3624   -2.5804    0.0490 C   0  0  0  0  0  0
    5.5646   -2.7618   -0.6416 C   0  0  0  0  0  0
    6.2063   -3.9955   -0.6948 C   0  0  0  0  0  0
    3.7805   -3.6706    0.7098 C   0  0  0  0  0  0
    4.3952   -4.9342    0.6829 C   0  0  0  0  0  0
    5.6170   -5.0775   -0.0302 C   0  0  0  0  0  0
    6.2213   -6.7233    0.0536 S   0  0  0  0  0  0
    4.8522   -7.2149    1.0442 C   0  0  0  0  0  0
    3.9829   -6.1587    1.2781 C   0  0  0  0  0  0
    4.7179   -8.5203    1.4785 C   0  0  0  0  0  0
    5.8033   -9.2110    1.8036 N   0  0  0  0  0  0
    3.4998   -9.0397    1.5645 N   0  3  0  0  0  0
    3.7059   -1.2422    0.0816 C   0  0  0  0  0  0
    4.4594   -0.0762    0.2683 C   0  0  0  0  0  0
    2.4655    1.2784    0.1363 C   0  0  0  0  0  0
    1.6834    0.1275   -0.0504 C   0  0  0  0  0  0
    3.8453    1.1741    0.2952 C   0  0  0  0  0  0
    2.3180   -1.1170   -0.0746 C   0  0  0  0  0  0
   -0.4372    1.3465   -0.2181 C   0  0  2  0  0  0
   -1.8627    1.0222    0.2010 C   0  0  0  0  0  0
   -0.3491    2.0714   -1.5794 C   0  0  0  0  0  0
    0.2867    1.6056   -2.5284 O   0  0  0  0  0  0
   -1.0116    3.2493   -1.5788 O   0  0  0  0  0  0
   -1.0408    4.0608   -2.7438 C   0  0  0  0  0  0
   -2.3109    1.0576    1.8863 S   0  0  0  0  0  0
   -3.9458    0.6157    1.5310 C   0  0  0  0  0  0
   -4.1433    0.4448    0.1742 C   0  0  0  0  0  0
   -2.9797    0.6706   -0.5656 C   0  0  0  0  0  0
    6.0151   -1.9274   -1.1599 H   0  0  0  0  0  0
    7.1335   -4.1097   -1.2376 H   0  0  0  0  0  0
    2.8546   -3.5374    1.2503 H   0  0  0  0  0  0
    3.0790   -6.2522    1.8617 H   0  0  0  0  0  0
    5.7171  -10.1654    2.1210 H   0  0  0  0  0  0
    6.7123   -8.7772    1.7322 H   0  0  0  0  0  0
    3.3803   -9.9919    1.8776 H   0  0  0  0  0  0
    5.5302   -0.1337    0.3994 H   0  0  0  0  0  0
    2.0261    2.2634    0.1558 H   0  0  0  0  0  0
    4.4404    2.0637    0.4388 H   0  0  0  0  0  0
    1.7151   -2.0009   -0.2268 H   0  0  0  0  0  0
   -0.0253    2.0219    0.5317 H   0  0  0  0  0  0
   -1.6099    4.9695   -2.5477 H   0  0  0  0  0  0
   -1.5149    3.5355   -3.5743 H   0  0  0  0  0  0
   -0.0334    4.3502   -3.0463 H   0  0  0  0  0  0
   -4.6688    0.5042    2.3256 H   0  0  0  0  0  0
   -5.0899    0.1665   -0.2654 H   0  0  0  0  0  0
   -2.9472    0.5800   -1.6415 H   0  0  0  0  0  0
    2.6989   -8.4845    1.3012 H   0  0  0  0  0  0
  1 17  1  0  0  0
  1 20  1  0  0  0
  2  3  2  0  0  0
  2  5  1  0  0  0
  2 14  1  0  0  0
  3  4  1  0  0  0
  3 30  1  0  0  0
  4  7  2  0  0  0
  4 31  1  0  0  0
  5  6  2  0  0  0
  5 32  1  0  0  0
  6 10  1  0  0  0
  6  7  1  0  0  0
  7  8  1  0  0  0
  8  9  1  0  0  0
  9 10  2  0  0  0
  9 11  1  0  0  0
 10 33  1  0  0  0
 11 12  1  0  0  0
 11 13  2  0  0  0
 12 34  1  0  0  0
 12 35  1  0  0  0
 13 36  1  0  0  0
 13 48  1  0  0  0
 14 15  2  0  0  0
 14 19  1  0  0  0
 15 18  1  0  0  0
 15 37  1  0  0  0
 16 17  1  0  0  0
 16 18  2  0  0  0
 16 38  1  0  0  0
 17 19  2  0  0  0
 18 39  1  0  0  0
 19 40  1  0  0  0
 20 21  1  0  0  0
 20 22  1  0  0  0
 20 41  1  0  0  0
 21 26  1  0  0  0
 21 29  2  0  0  0
 22 23  2  0  0  0
 22 24  1  0  0  0
 24 25  1  0  0  0
 25 42  1  0  0  0
 25 43  1  0  0  0
 25 44  1  0  0  0
 26 27  1  0  0  0
 27 28  2  0  0  0
 27 45  1  0  0  0
 28 29  1  0  0  0
 28 46  1  0  0  0
 29 47  1  0  0  0
M  CHG  1  13   1
M  END
> <chembl_id>
CHEMBL596950

> <chembl_pref_name>
None

> <s_m_source_file>
sdf/actives_sanitized.sdf

> <i_m_source_file_index>
141

> <i_lp_mmshare_version>
49012

> <i_m_ct_stereo_status>
1

> <i_f3d_flags>
0

> <s_epik_input>
W2NIXTFbY0hdW2NIXXNjMVtDQEhdKEMoPU8pT1tDSDNdKU9jKFtjSF0yKVtjSF1bY0hdW2NIXWMyLWMoW2NIXTMpW2NIXVtjSF1jKGMzNClzYyhbY0hdNCkvQyhbTkgyXSk9Ti9bSF0=

> <s_epik_cmdline>
J2VwaWtfcHl0aG9uJywgJy1waHQnLCAnMC41JywgJy1waCcsICc3LjUnLCAnLW50JywgJy1tYScsICcyMDAnLCAnLWltYWUnLCAnPGluZmlsZS5tYWU+JywgJy1vbWFlJywgJzxvdXRmaWxlLm1hZT4n

> <r_lp_tautomer_probability>
1

> <r_epik_Ionization_Penalty>
  0.0095

> <r_epik_Ionization_Penalty_Charging>
  0.0095

> <r_epik_Ionization_Penalty_Neutral>
  0.0000

> <r_epik_State_Penalty>
 -0.0000

> <r_epik_Charging_Adjusted_Penalty>
0.00945881282357717

> <i_epik_Tot_Q>
1

> <i_epik_Tot_abs_Q>
1

> <s_epik_Chemistry_Notes>
This compound has an ester and may undergo hydrolysis at high or low pH. This compound has an imine and may undergo hydrolysis.

> <s_lp_Force_Field>
OPLS3e

> <r_lp_Energy>
31.685146

> <b_lp_Chiralities_Consistent>
1

> <s_lp_Variant>
sdf/actives_sanitized.sdf:141-1

$$$$
sdf/actives_sanitized.sdf:142
                    3D
 Schrodinger Suite 2020-1.
 70 75  0  0  1  0            999 V2000
   -0.5299    1.6602    0.0511 C   0  0  0  0  0  0
   -1.4497    2.1966   -0.8655 C   0  0  0  0  0  0
   -1.8690    3.5199   -0.7613 C   0  0  0  0  0  0
   -1.3784    4.3228    0.2634 C   0  0  0  0  0  0
   -0.4712    3.8122    1.1860 C   0  0  0  0  0  0
   -0.0520    2.4894    1.0798 C   0  0  0  0  0  0
   -4.7582   -2.1426   -4.0229 C   0  0  0  0  0  0
   -5.0550   -2.0303   -2.6640 C   0  0  0  0  0  0
   -2.4516   -1.4501   -3.6401 C   0  0  0  0  0  0
   -3.4768   -1.8574   -4.4927 C   0  0  0  0  0  0
   -2.7563   -1.3345   -2.2768 C   0  0  0  0  0  0
   -4.0512   -1.6253   -1.7683 C   0  0  0  0  0  0
   -4.0128   -1.4172   -0.3506 C   0  0  0  0  0  0
   -1.9734   -0.9530   -1.2019 N   0  0  0  0  0  0
   -2.7179   -1.0297   -0.0322 C   0  0  0  0  0  0
   -2.1170   -0.6541    1.3170 C   0  0  0  0  0  0
   -0.5787   -0.5742    1.2311 C   0  0  0  0  0  0
   -0.0514    0.1769   -0.0224 C   0  0  1  0  0  0
   -0.5433   -0.6197   -1.2800 C   0  0  0  0  0  0
    1.4243    0.1607    0.0345 N   0  0  0  0  0  0
    2.2840    0.6895   -0.8617 C   0  0  0  0  0  0
    3.7469    0.4351   -0.5925 C   0  0  0  0  0  0
    1.9361    1.3904   -1.8136 O   0  0  0  0  0  0
    4.6366    1.5133   -0.6917 C   0  0  0  0  0  0
    6.0010    1.3431   -0.4692 C   0  0  0  0  0  0
    6.5145    0.0804   -0.1560 C   0  0  0  0  0  0
    5.6350   -1.0081   -0.0791 C   0  0  0  0  0  0
    4.2658   -0.8461   -0.3018 C   0  0  0  0  0  0
    3.2816   -2.2738   -0.2366 Cl  0  0  0  0  0  0
    7.9037   -0.0855    0.0699 N   0  0  0  0  0  0
    8.8575    0.8501    0.3860 C   0  0  0  0  0  0
   10.0334    0.2926    0.5108 N   0  0  0  0  0  0
    9.7659   -0.9823    0.2742 C   0  0  0  0  0  0
    8.5127   -1.2790   -0.0011 N   0  0  0  0  0  0
   10.8493   -2.0375    0.2867 C   0  0  0  0  0  0
   -5.8437   -2.5832   -4.9885 C   0  0  0  0  0  0
   -5.1771   -1.5994    0.6036 C   0  0  0  0  0  0
   -5.4707   -3.0938    0.8778 C   0  0  0  0  0  0
   -6.6457   -3.3285    1.8445 C   0  0  0  0  0  0
   -7.2469   -2.3427    2.3292 O   0  5  0  0  0  0
   -6.9270   -4.5227    2.0868 O   0  0  0  0  0  0
   -1.8517    1.6081   -1.6745 H   0  0  0  0  0  0
   -2.5730    3.9219   -1.4749 H   0  0  0  0  0  0
   -1.7048    5.3492    0.3434 H   0  0  0  0  0  0
   -0.0946    4.4385    1.9812 H   0  0  0  0  0  0
    0.6513    2.1077    1.8053 H   0  0  0  0  0  0
   -6.0483   -2.2560   -2.3034 H   0  0  0  0  0  0
   -1.4672   -1.2331   -4.0278 H   0  0  0  0  0  0
   -3.2629   -1.9508   -5.5475 H   0  0  0  0  0  0
   -2.5141    0.3107    1.6348 H   0  0  0  0  0  0
   -2.4070   -1.3721    2.0849 H   0  0  0  0  0  0
   -0.1799   -0.1435    2.1510 H   0  0  0  0  0  0
   -0.1945   -1.5966    1.2154 H   0  0  0  0  0  0
    0.0016   -1.5613   -1.3713 H   0  0  0  0  0  0
   -0.3426   -0.0722   -2.2018 H   0  0  0  0  0  0
    1.8101   -0.5708    0.6134 H   0  0  0  0  0  0
    4.2740    2.5027   -0.9345 H   0  0  0  0  0  0
    6.6485    2.2033   -0.5536 H   0  0  0  0  0  0
    6.0097   -1.9959    0.1492 H   0  0  0  0  0  0
    8.6104    1.8940    0.5089 H   0  0  0  0  0  0
   10.5592   -2.9671   -0.2048 H   0  0  0  0  0  0
   11.2252   -2.2340    1.2908 H   0  0  0  0  0  0
   11.7198   -1.6823   -0.2661 H   0  0  0  0  0  0
   -5.4754   -2.6776   -6.0108 H   0  0  0  0  0  0
   -6.6669   -1.8681   -4.9815 H   0  0  0  0  0  0
   -6.2486   -3.5484   -4.6823 H   0  0  0  0  0  0
   -4.9684   -1.0925    1.5475 H   0  0  0  0  0  0
   -6.0640   -1.1110    0.1967 H   0  0  0  0  0  0
   -5.6939   -3.6057   -0.0594 H   0  0  0  0  0  0
   -4.5832   -3.5713    1.2961 H   0  0  0  0  0  0
  1  2  2  0  0  0
  1  6  1  0  0  0
  1 18  1  0  0  0
  2  3  1  0  0  0
  2 42  1  0  0  0
  3  4  2  0  0  0
  3 43  1  0  0  0
  4  5  1  0  0  0
  4 44  1  0  0  0
  5  6  2  0  0  0
  5 45  1  0  0  0
  6 46  1  0  0  0
  7  8  2  0  0  0
  7 10  1  0  0  0
  7 36  1  0  0  0
  8 12  1  0  0  0
  8 47  1  0  0  0
  9 11  1  0  0  0
  9 10  2  0  0  0
  9 48  1  0  0  0
 10 49  1  0  0  0
 11 12  2  0  0  0
 11 14  1  0  0  0
 12 13  1  0  0  0
 13 15  2  0  0  0
 13 37  1  0  0  0
 14 15  1  0  0  0
 14 19  1  0  0  0
 15 16  1  0  0  0
 16 17  1  0  0  0
 16 50  1  0  0  0
 16 51  1  0  0  0
 17 18  1  0  0  0
 17 52  1  0  0  0
 17 53  1  0  0  0
 18 19  1  0  0  0
 18 20  1  0  0  0
 19 54  1  0  0  0
 19 55  1  0  0  0
 20 21  1  0  0  0
 20 56  1  0  0  0
 21 22  1  0  0  0
 21 23  2  0  0  0
 22 24  2  0  0  0
 22 28  1  0  0  0
 24 25  1  0  0  0
 24 57  1  0  0  0
 25 26  2  0  0  0
 25 58  1  0  0  0
 26 27  1  0  0  0
 26 30  1  0  0  0
 27 28  2  0  0  0
 27 59  1  0  0  0
 28 29  1  0  0  0
 30 31  1  0  0  0
 30 34  1  0  0  0
 31 32  2  0  0  0
 31 60  1  0  0  0
 32 33  1  0  0  0
 33 34  2  0  0  0
 33 35  1  0  0  0
 35 61  1  0  0  0
 35 62  1  0  0  0
 35 63  1  0  0  0
 36 64  1  0  0  0
 36 65  1  0  0  0
 36 66  1  0  0  0
 37 38  1  0  0  0
 37 67  1  0  0  0
 37 68  1  0  0  0
 38 39  1  0  0  0
 38 69  1  0  0  0
 38 70  1  0  0  0
 39 40  1  0  0  0
 39 41  2  0  0  0
M  CHG  1  40  -1
M  END
> <chembl_id>
CHEMBL3628835

> <chembl_pref_name>
None

> <i_m_ct_stereo_status>
1

> <s_m_source_file>
sdf/actives_sanitized.sdf

> <i_m_source_file_index>
142

> <i_lp_mmshare_version>
49012

> <i_f3d_flags>
0

> <s_epik_input>
W2NIXTFbY0hdYyhbQ0gzXSlbY0hdYyhjMTIpYyhbQ0gyXVtDSDJdQyg9TylbT0hdKWMzbjJbQ0gyXVtDQF0oW0NIMl1bQ0gyXTMpKGM0W2NIXVtjSF1bY0hdW2NIXVtjSF00KVtOSF1DKD1PKWM1W2NIXVtjSF1jKFtjSF1jNUNsKS1uNltjSF1uYyhuNilbQ0gzXQ==

> <s_epik_cmdline>
J2VwaWtfcHl0aG9uJywgJy1waHQnLCAnMC41JywgJy1waCcsICc3LjUnLCAnLW50JywgJy1tYScsICcyMDAnLCAnLWltYWUnLCAnPGluZmlsZS5tYWU+JywgJy1vbWFlJywgJzxvdXRmaWxlLm1hZT4n

> <r_lp_tautomer_probability>
1

> <r_epik_Ionization_Penalty>
  0.0008

> <r_epik_Ionization_Penalty_Charging>
  0.0007

> <r_epik_Ionization_Penalty_Neutral>
  0.0001

> <r_epik_State_Penalty>
 -0.0000

> <r_epik_Charging_Adjusted_Penalty>
0.000736190448917133

> <i_epik_Tot_Q>
-1

> <i_epik_Tot_abs_Q>
1

> <s_lp_Force_Field>
OPLS3e

> <r_lp_Energy>
51.179056

> <b_lp_Chiralities_Consistent>
1

> <s_lp_Variant>
sdf/actives_sanitized.sdf:142-1

$$$$
sdf/actives_sanitized.sdf:143
                    3D
 Schrodinger Suite 2020-1.
 59 64  0  0  1  0            999 V2000
   -0.5467    1.6232   -0.0178 C   0  0  0  0  0  0
   -1.5315    2.1795    0.8167 C   0  0  0  0  0  0
   -1.9294    3.5050    0.6636 C   0  0  0  0  0  0
   -1.3575    4.2889   -0.3331 C   0  0  0  0  0  0
   -0.3940    3.7558   -1.1825 C   0  0  0  0  0  0
    0.0016    2.4307   -1.0290 C   0  0  0  0  0  0
   -0.4081   -5.1414   -3.7855 C   0  0  0  0  0  0
   -0.2232   -5.3482   -2.4177 C   0  0  0  0  0  0
   -0.6812   -2.7392   -3.4526 C   0  0  0  0  0  0
   -0.6327   -3.8580   -4.2841 C   0  0  0  0  0  0
   -0.4930   -2.9495   -2.0795 C   0  0  0  0  0  0
   -0.2690   -4.2489   -1.5465 C   0  0  0  0  0  0
   -0.1379   -4.0923   -0.1350 C   0  0  0  0  0  0
   -0.4786   -2.0607   -1.0140 N   0  0  0  0  0  0
   -0.2891   -2.7545    0.1769 C   0  0  0  0  0  0
   -0.2111   -2.0404    1.5223 C   0  0  0  0  0  0
   -0.6539   -0.5674    1.3833 C   0  0  0  0  0  0
   -0.1001    0.1348    0.1020 C   0  0  1  0  0  0
   -0.7341   -0.6146   -1.1089 C   0  0  0  0  0  0
    1.3783    0.0739    0.0249 N   0  0  0  0  0  0
    2.2633    0.6198    0.8829 C   0  0  0  0  0  0
    3.7035    0.3496    0.5435 C   0  0  0  0  0  0
    1.9663    1.3147    1.8544 O   0  0  0  0  0  0
    4.4024    1.2078   -0.3288 C   0  0  0  0  0  0
    5.7365    0.9492   -0.6456 C   0  0  0  0  0  0
    6.3967   -0.1576   -0.1046 C   0  0  0  0  0  0
    5.7077   -1.0060    0.7663 C   0  0  0  0  0  0
    4.3740   -0.7604    1.0941 C   0  0  0  0  0  0
    3.6051   -1.8621    2.1898 Cl  0  0  0  0  0  0
    7.7450   -0.4156   -0.4322 N   0  0  0  0  0  0
   -0.3596   -6.3284   -4.7310 C   0  0  0  0  0  0
    3.6647    2.6044   -1.0462 Cl  0  0  0  0  0  0
    8.7317    0.4732   -0.7998 C   0  0  0  0  0  0
    9.8740   -0.1241   -1.0313 N   0  0  0  0  0  0
    9.6657   -1.4826   -0.8172 N   0  0  0  0  0  0
    8.4115   -1.6211   -0.4673 C   0  0  0  0  0  0
   -2.0020    1.6069    1.6001 H   0  0  0  0  0  0
   -2.6814    3.9233    1.3163 H   0  0  0  0  0  0
   -1.6674    5.3168   -0.4514 H   0  0  0  0  0  0
    0.0427    4.3659   -1.9594 H   0  0  0  0  0  0
    0.7434    2.0303   -1.7043 H   0  0  0  0  0  0
   -0.0516   -6.3435   -2.0342 H   0  0  0  0  0  0
   -0.8556   -1.7557   -3.8632 H   0  0  0  0  0  0
   -0.7745   -3.7169   -5.3460 H   0  0  0  0  0  0
    0.0449   -4.8710    0.5905 H   0  0  0  0  0  0
   -0.8270   -2.5447    2.2674 H   0  0  0  0  0  0
    0.8107   -2.0762    1.8956 H   0  0  0  0  0  0
   -1.7451   -0.5677    1.3548 H   0  0  0  0  0  0
   -0.3830   -0.0163    2.2849 H   0  0  0  0  0  0
   -0.3388   -0.2396   -2.0546 H   0  0  0  0  0  0
   -1.8151   -0.4656   -1.1395 H   0  0  0  0  0  0
    1.7362   -0.6805   -0.5425 H   0  0  0  0  0  0
    6.2515    1.6148   -1.3233 H   0  0  0  0  0  0
    6.2049   -1.8598    1.2037 H   0  0  0  0  0  0
   -0.4379   -6.0281   -5.7767 H   0  0  0  0  0  0
   -1.1691   -7.0235   -4.5064 H   0  0  0  0  0  0
    0.5791   -6.8695   -4.6059 H   0  0  0  0  0  0
    8.5310    1.5324   -0.8632 H   0  0  0  0  0  0
    7.9037   -2.5451   -0.2328 H   0  0  0  0  0  0
  1  2  2  0  0  0
  1  6  1  0  0  0
  1 18  1  0  0  0
  2  3  1  0  0  0
  2 37  1  0  0  0
  3  4  2  0  0  0
  3 38  1  0  0  0
  4  5  1  0  0  0
  4 39  1  0  0  0
  5  6  2  0  0  0
  5 40  1  0  0  0
  6 41  1  0  0  0
  7  8  2  0  0  0
  7 10  1  0  0  0
  7 31  1  0  0  0
  8 12  1  0  0  0
  8 42  1  0  0  0
  9 11  1  0  0  0
  9 10  2  0  0  0
  9 43  1  0  0  0
 10 44  1  0  0  0
 11 12  2  0  0  0
 11 14  1  0  0  0
 12 13  1  0  0  0
 13 15  2  0  0  0
 13 45  1  0  0  0
 14 15  1  0  0  0
 14 19  1  0  0  0
 15 16  1  0  0  0
 16 17  1  0  0  0
 16 46  1  0  0  0
 16 47  1  0  0  0
 17 18  1  0  0  0
 17 48  1  0  0  0
 17 49  1  0  0  0
 18 19  1  0  0  0
 18 20  1  0  0  0
 19 50  1  0  0  0
 19 51  1  0  0  0
 20 21  1  0  0  0
 20 52  1  0  0  0
 21 22  1  0  0  0
 21 23  2  0  0  0
 22 24  2  0  0  0
 22 28  1  0  0  0
 24 25  1  0  0  0
 24 32  1  0  0  0
 25 26  2  0  0  0
 25 53  1  0  0  0
 26 27  1  0  0  0
 26 30  1  0  0  0
 27 28  2  0  0  0
 27 54  1  0  0  0
 28 29  1  0  0  0
 30 33  1  0  0  0
 30 36  1  0  0  0
 31 55  1  0  0  0
 31 56  1  0  0  0
 31 57  1  0  0  0
 33 34  2  0  0  0
 33 58  1  0  0  0
 34 35  1  0  0  0
 35 36  2  0  0  0
 36 59  1  0  0  0
M  END
> <chembl_id>
CHEMBL3628956

> <chembl_pref_name>
None

> <i_m_ct_stereo_status>
1

> <s_m_source_file>
sdf/actives_sanitized.sdf

> <i_m_source_file_index>
143

> <i_lp_mmshare_version>
49012

> <i_f3d_flags>
0

> <s_epik_input>
W2NIXTFbY0hdYyhbQ0gzXSlbY0hdYyhjMTIpW2NIXWMzbjJbQ0gyXVtDQF0oW0NIMl1bQ0gyXTMpKGM0W2NIXVtjSF1bY0hdW2NIXVtjSF00KVtOSF1DKD1PKWM1YyhDbClbY0hdYyhbY0hdYzVDbCktbjZbY0hdbm5bY0hdNg==

> <s_epik_cmdline>
J2VwaWtfcHl0aG9uJywgJy1waHQnLCAnMC41JywgJy1waCcsICc3LjUnLCAnLW50JywgJy1tYScsICcyMDAnLCAnLWltYWUnLCAnPGluZmlsZS5tYWU+JywgJy1vbWFlJywgJzxvdXRmaWxlLm1hZT4n

> <r_lp_tautomer_probability>
1

> <r_epik_Ionization_Penalty>
  0.0002

> <r_epik_Ionization_Penalty_Charging>
  0.0000

> <r_epik_Ionization_Penalty_Neutral>
  0.0002

> <r_epik_State_Penalty>
 -0.0000

> <r_epik_Charging_Adjusted_Penalty>
0

> <i_epik_Tot_Q>
0

> <i_epik_Tot_abs_Q>
0

> <s_lp_Force_Field>
OPLS3e

> <r_lp_Energy>
44.401788

> <b_lp_Chiralities_Consistent>
1

> <s_lp_Variant>
sdf/actives_sanitized.sdf:143-1

$$$$
sdf/actives_sanitized.sdf:144
                    3D
 Schrodinger Suite 2020-1.
 72 76  0  0  1  0            999 V2000
  -11.2832   -0.9212   -4.3703 C   0  0  0  0  0  0
   -9.9952   -0.3355   -4.2391 O   0  0  0  0  0  0
   -8.9142   -1.0958   -3.9725 C   0  0  0  0  0  0
   -8.9435   -2.3197   -3.8253 O   0  0  0  0  0  0
   -7.8036   -0.2622   -3.8849 N   0  0  0  0  0  0
   -6.4582   -0.5947   -3.6561 C   0  0  0  0  0  0
   -5.9467   -1.9003   -3.6989 C   0  0  0  0  0  0
   -4.5924   -2.1329   -3.4650 C   0  0  0  0  0  0
   -3.7204   -1.0785   -3.1773 C   0  0  0  0  0  0
   -4.2330    0.2381   -3.1512 C   0  0  0  0  0  0
   -3.3807    1.3483   -3.0144 N   0  0  0  0  0  0
   -3.2049    2.1423   -1.9333 C   0  0  0  0  0  0
   -2.4749    3.1279   -2.0301 O   0  0  0  0  0  0
   -3.8980    1.8537   -0.5743 C   0  0  2  0  0  0
   -5.1832    2.7042   -0.4693 C   0  0  0  0  0  0
   -2.9811    2.1113    0.6728 C   0  0  0  0  0  0
   -1.9090    1.0470    1.0376 C   0  0  0  0  0  0
   -0.5939    1.0692    0.2108 C   0  0  0  0  0  0
    0.0733   -0.3284   -0.0307 C   0  0  2  0  0  0
    1.5535   -0.2410    0.0210 N   0  0  0  0  0  0
    2.2331    0.7617   -0.8509 C   0  0  0  0  0  0
    3.6900    0.3592   -1.2027 C   0  0  0  0  0  0
    4.3912   -0.0954    0.0633 C   0  0  0  0  0  0
    3.6756   -0.7739    0.9814 C   0  0  0  0  0  0
    2.2534   -1.0296    0.9002 C   0  0  0  0  0  0
    1.7495   -1.9272    1.5773 O   0  0  0  0  0  0
    5.8730   -0.0721    0.1344 C   0  0  0  0  0  0
    6.5854   -1.2718   -0.0408 C   0  0  0  0  0  0
    5.9199   -2.4346   -0.2479 F   0  0  0  0  0  0
    7.9821   -1.2822   -0.0108 C   0  0  0  0  0  0
    8.8545   -2.7590   -0.2202 Cl  0  0  0  0  0  0
    8.6830   -0.0955    0.1845 C   0  0  0  0  0  0
    7.9939    1.1029    0.3469 C   0  0  0  0  0  0
    6.5956    1.1280    0.3200 C   0  0  0  0  0  0
    5.9343    2.4191    0.5038 C   0  0  0  0  0  0
    5.4101    3.4404    0.6490 N   0  0  0  0  0  0
   -0.4626   -1.0198   -1.3060 C   0  0  0  0  0  0
   -1.8175   -0.9330   -1.6144 C   0  0  0  0  0  0
   -2.3010   -1.3673   -2.8434 C   0  0  0  0  0  0
   -1.4135   -2.0160   -3.7089 C   0  0  0  0  0  0
   -0.0755   -2.1436   -3.3201 C   0  0  0  0  0  0
    0.4089   -1.6424   -2.1515 N   0  0  0  0  0  0
   -5.5899    0.4682   -3.3985 C   0  0  0  0  0  0
  -12.0186   -0.1497   -4.5983 H   0  0  0  0  0  0
  -11.5846   -1.4152   -3.4454 H   0  0  0  0  0  0
  -11.3004   -1.6555   -5.1770 H   0  0  0  0  0  0
   -7.9867    0.7243   -3.9952 H   0  0  0  0  0  0
   -6.5719   -2.7514   -3.9165 H   0  0  0  0  0  0
   -4.2235   -3.1484   -3.4871 H   0  0  0  0  0  0
   -2.8175    1.5576   -3.8257 H   0  0  0  0  0  0
   -4.2210    0.8134   -0.5423 H   0  0  0  0  0  0
   -5.8656    2.5192   -1.2992 H   0  0  0  0  0  0
   -4.9614    3.7727   -0.4623 H   0  0  0  0  0  0
   -5.7325    2.4764    0.4450 H   0  0  0  0  0  0
   -2.5160    3.0970    0.6154 H   0  0  0  0  0  0
   -3.6335    2.1740    1.5455 H   0  0  0  0  0  0
   -1.6279    1.2026    2.0804 H   0  0  0  0  0  0
   -2.3689    0.0599    1.0518 H   0  0  0  0  0  0
   -0.7462    1.5586   -0.7497 H   0  0  0  0  0  0
    0.0983    1.7295    0.7362 H   0  0  0  0  0  0
   -0.2754   -0.9701    0.7800 H   0  0  0  0  0  0
    1.6212    1.0486   -1.7067 H   0  0  0  0  0  0
    2.3173    1.6643   -0.2436 H   0  0  0  0  0  0
    3.6560   -0.4715   -1.9091 H   0  0  0  0  0  0
    4.2174    1.1799   -1.6895 H   0  0  0  0  0  0
    4.1923   -1.1955    1.8323 H   0  0  0  0  0  0
    9.7630   -0.1002    0.2069 H   0  0  0  0  0  0
    8.5616    2.0115    0.4947 H   0  0  0  0  0  0
   -2.5088   -0.4710   -0.9408 H   0  0  0  0  0  0
   -1.7443   -2.3880   -4.6677 H   0  0  0  0  0  0
    0.6398   -2.6301   -3.9665 H   0  0  0  0  0  0
   -5.9660    1.4819   -3.4061 H   0  0  0  0  0  0
  1  2  1  0  0  0
  1 44  1  0  0  0
  1 45  1  0  0  0
  1 46  1  0  0  0
  2  3  1  0  0  0
  3  4  2  0  0  0
  3  5  1  0  0  0
  5  6  1  0  0  0
  5 47  1  0  0  0
  6  7  2  0  0  0
  6 43  1  0  0  0
  7  8  1  0  0  0
  7 48  1  0  0  0
  8  9  2  0  0  0
  8 49  1  0  0  0
  9 10  1  0  0  0
  9 39  1  0  0  0
 10 11  1  0  0  0
 10 43  2  0  0  0
 11 12  1  0  0  0
 11 50  1  0  0  0
 12 13  2  0  0  0
 12 14  1  0  0  0
 14 15  1  0  0  0
 14 16  1  0  0  0
 14 51  1  0  0  0
 15 52  1  0  0  0
 15 53  1  0  0  0
 15 54  1  0  0  0
 16 17  1  0  0  0
 16 55  1  0  0  0
 16 56  1  0  0  0
 17 18  1  0  0  0
 17 57  1  0  0  0
 17 58  1  0  0  0
 18 19  1  0  0  0
 18 59  1  0  0  0
 18 60  1  0  0  0
 19 20  1  0  0  0
 19 37  1  0  0  0
 19 61  1  0  0  0
 20 21  1  0  0  0
 20 25  1  0  0  0
 21 22  1  0  0  0
 21 62  1  0  0  0
 21 63  1  0  0  0
 22 23  1  0  0  0
 22 64  1  0  0  0
 22 65  1  0  0  0
 23 24  2  0  0  0
 23 27  1  0  0  0
 24 25  1  0  0  0
 24 66  1  0  0  0
 25 26  2  0  0  0
 27 28  2  0  0  0
 27 34  1  0  0  0
 28 29  1  0  0  0
 28 30  1  0  0  0
 30 31  1  0  0  0
 30 32  2  0  0  0
 32 33  1  0  0  0
 32 67  1  0  0  0
 33 34  2  0  0  0
 33 68  1  0  0  0
 34 35  1  0  0  0
 35 36  3  0  0  0
 37 38  1  0  0  0
 37 42  2  0  0  0
 38 39  2  0  0  0
 38 69  1  0  0  0
 39 40  1  0  0  0
 40 41  2  0  0  0
 40 70  1  0  0  0
 41 42  1  0  0  0
 41 71  1  0  0  0
 43 72  1  0  0  0
M  END
> <chembl_id>
CHEMBL4107149

> <chembl_pref_name>
None

> <i_m_ct_stereo_status>
1

> <s_m_source_file>
sdf/actives_sanitized.sdf

> <i_m_source_file_index>
144

> <i_lp_mmshare_version>
49012

> <i_f3d_flags>
0

> <s_epik_input>
W0NIM11PQyg9TylbTkhdYyhbY0hdW2NIXTEpW2NIXWMoYzEyKVtOSF1DKD1PKVtDQEhdKFtDSDNdKVtDSDJdW0NIMl1bQ0gyXVtDQEBIXShjM1tjSF1jMltjSF1bY0hdbjMpTjRbQ0gyXVtDSDJdQyg9W0NIXUM0PU8pYzVjKEYpYyhDbClbY0hdW2NIXWM1QyNO

> <s_epik_cmdline>
J2VwaWtfcHl0aG9uJywgJy1waHQnLCAnMC41JywgJy1waCcsICc3LjUnLCAnLW50JywgJy1tYScsICcyMDAnLCAnLWltYWUnLCAnPGluZmlsZS5tYWU+JywgJy1vbWFlJywgJzxvdXRmaWxlLm1hZT4n

> <r_lp_tautomer_probability>
1

> <r_epik_Ionization_Penalty>
  0.0001

> <r_epik_Ionization_Penalty_Charging>
  0.0000

> <r_epik_Ionization_Penalty_Neutral>
  0.0001

> <r_epik_State_Penalty>
 -0.0000

> <r_epik_Charging_Adjusted_Penalty>
0

> <i_epik_Tot_Q>
0

> <i_epik_Tot_abs_Q>
0

> <s_epik_Chemistry_Notes>
This compound has an ester and may undergo hydrolysis at high or low pH.

> <s_lp_Force_Field>
OPLS3e

> <r_lp_Energy>
98.370578

> <b_lp_Chiralities_Consistent>
1

> <s_lp_Variant>
sdf/actives_sanitized.sdf:144-1

$$$$
sdf/actives_sanitized.sdf:145
                    3D
 Schrodinger Suite 2020-1.
 72 76  0  0  1  0            999 V2000
  -11.2819   -0.9187   -4.3715 C   0  0  0  0  0  0
   -9.9915   -0.3365   -4.2462 O   0  0  0  0  0  0
   -8.9134   -1.0981   -3.9700 C   0  0  0  0  0  0
   -8.9472   -2.3205   -3.8112 O   0  0  0  0  0  0
   -7.8003   -0.2673   -3.8880 N   0  0  0  0  0  0
   -6.4560   -0.6021   -3.6546 C   0  0  0  0  0  0
   -5.9482   -1.9096   -3.6853 C   0  0  0  0  0  0
   -4.5945   -2.1444   -3.4485 C   0  0  0  0  0  0
   -3.7194   -1.0905   -3.1692 C   0  0  0  0  0  0
   -4.2281    0.2278   -3.1553 C   0  0  0  0  0  0
   -3.3726    1.3368   -3.0280 N   0  0  0  0  0  0
   -3.1961    2.1411   -1.9548 C   0  0  0  0  0  0
   -2.4643    3.1244   -2.0602 O   0  0  0  0  0  0
   -3.8923    1.8680   -0.5941 C   0  0  2  0  0  0
   -5.1741    2.7250   -0.4993 C   0  0  0  0  0  0
   -2.9773    2.1334    0.6528 C   0  0  0  0  0  0
   -1.9103    1.0681    1.0296 C   0  0  0  0  0  0
   -0.5937    1.0783    0.2047 C   0  0  0  0  0  0
    0.0692   -0.3238   -0.0211 C   0  0  2  0  0  0
    1.5495   -0.2422    0.0357 N   0  0  0  0  0  0
    2.2366    0.7518   -0.8402 C   0  0  0  0  0  0
    3.6929    0.3405   -1.1849 C   0  0  0  0  0  0
    4.3877   -0.1103    0.0859 C   0  0  0  0  0  0
    3.6661   -0.7814    1.0046 C   0  0  0  0  0  0
    2.2429   -1.0306    0.9205 C   0  0  0  0  0  0
    1.7324   -1.9224    1.6002 O   0  0  0  0  0  0
    5.8692   -0.0927    0.1617 C   0  0  0  0  0  0
    6.5775   -1.2960   -0.0020 C   0  0  0  0  0  0
    5.9186   -2.4624   -0.2018 F   0  0  0  0  0  0
    7.9709   -1.3125    0.0310 C   0  0  0  0  0  0
    8.6801   -0.1302    0.2163 C   0  0  0  0  0  0
    7.9968    1.0736    0.3682 C   0  0  0  0  0  0
    6.5980    1.1056    0.3388 C   0  0  0  0  0  0
    5.9429    2.4012    0.5111 C   0  0  0  0  0  0
    5.4234    3.4264    0.6470 N   0  0  0  0  0  0
   -0.4651   -1.0244   -1.2921 C   0  0  0  0  0  0
   -1.8193   -0.9380   -1.6036 C   0  0  0  0  0  0
   -2.3011   -1.3802   -2.8306 C   0  0  0  0  0  0
   -1.4126   -2.0365   -3.6895 C   0  0  0  0  0  0
   -0.0754   -2.1628   -3.2974 C   0  0  0  0  0  0
    0.4073   -1.6541   -2.1314 N   0  0  0  0  0  0
   -5.5842    0.4600   -3.4057 C   0  0  0  0  0  0
  -12.0150   -0.1468   -4.6052 H   0  0  0  0  0  0
  -11.5838   -1.4035   -3.4419 H   0  0  0  0  0  0
  -11.3021   -1.6599   -5.1720 H   0  0  0  0  0  0
   -7.9808    0.7189   -4.0059 H   0  0  0  0  0  0
   -6.5760   -2.7607   -3.8954 H   0  0  0  0  0  0
   -4.2286   -3.1611   -3.4619 H   0  0  0  0  0  0
   -2.8093    1.5376   -3.8415 H   0  0  0  0  0  0
   -4.2195    0.8294   -0.5537 H   0  0  0  0  0  0
   -5.8554    2.5348   -1.3289 H   0  0  0  0  0  0
   -4.9483    3.7926   -0.5019 H   0  0  0  0  0  0
   -5.7263    2.5082    0.4158 H   0  0  0  0  0  0
   -2.5081    3.1165    0.5871 H   0  0  0  0  0  0
   -3.6313    2.2070    1.5234 H   0  0  0  0  0  0
   -1.6306    1.2317    2.0718 H   0  0  0  0  0  0
   -2.3740    0.0829    1.0516 H   0  0  0  0  0  0
   -0.7437    1.5570   -0.7615 H   0  0  0  0  0  0
    0.0993    1.7433    0.7230 H   0  0  0  0  0  0
   -0.2849   -0.9563    0.7944 H   0  0  0  0  0  0
    1.6280    1.0350   -1.6996 H   0  0  0  0  0  0
    2.3220    1.6584   -0.2394 H   0  0  0  0  0  0
    3.6583   -0.4942   -1.8868 H   0  0  0  0  0  0
    4.2257    1.1561   -1.6744 H   0  0  0  0  0  0
    4.1783   -1.2021    1.8586 H   0  0  0  0  0  0
    8.5028   -2.2444   -0.0930 H   0  0  0  0  0  0
    9.7598   -0.1462    0.2391 H   0  0  0  0  0  0
    8.5687    1.9808    0.5086 H   0  0  0  0  0  0
   -2.5111   -0.4696   -0.9347 H   0  0  0  0  0  0
   -1.7419   -2.4153   -4.6461 H   0  0  0  0  0  0
    0.6411   -2.6539   -3.9390 H   0  0  0  0  0  0
   -5.9571    1.4748   -3.4225 H   0  0  0  0  0  0
  1  2  1  0  0  0
  1 43  1  0  0  0
  1 44  1  0  0  0
  1 45  1  0  0  0
  2  3  1  0  0  0
  3  4  2  0  0  0
  3  5  1  0  0  0
  5  6  1  0  0  0
  5 46  1  0  0  0
  6  7  2  0  0  0
  6 42  1  0  0  0
  7  8  1  0  0  0
  7 47  1  0  0  0
  8  9  2  0  0  0
  8 48  1  0  0  0
  9 10  1  0  0  0
  9 38  1  0  0  0
 10 11  1  0  0  0
 10 42  2  0  0  0
 11 12  1  0  0  0
 11 49  1  0  0  0
 12 13  2  0  0  0
 12 14  1  0  0  0
 14 15  1  0  0  0
 14 16  1  0  0  0
 14 50  1  0  0  0
 15 51  1  0  0  0
 15 52  1  0  0  0
 15 53  1  0  0  0
 16 17  1  0  0  0
 16 54  1  0  0  0
 16 55  1  0  0  0
 17 18  1  0  0  0
 17 56  1  0  0  0
 17 57  1  0  0  0
 18 19  1  0  0  0
 18 58  1  0  0  0
 18 59  1  0  0  0
 19 20  1  0  0  0
 19 36  1  0  0  0
 19 60  1  0  0  0
 20 21  1  0  0  0
 20 25  1  0  0  0
 21 22  1  0  0  0
 21 61  1  0  0  0
 21 62  1  0  0  0
 22 23  1  0  0  0
 22 63  1  0  0  0
 22 64  1  0  0  0
 23 24  2  0  0  0
 23 27  1  0  0  0
 24 25  1  0  0  0
 24 65  1  0  0  0
 25 26  2  0  0  0
 27 28  2  0  0  0
 27 33  1  0  0  0
 28 29  1  0  0  0
 28 30  1  0  0  0
 30 31  2  0  0  0
 30 66  1  0  0  0
 31 32  1  0  0  0
 31 67  1  0  0  0
 32 33  2  0  0  0
 32 68  1  0  0  0
 33 34  1  0  0  0
 34 35  3  0  0  0
 36 37  1  0  0  0
 36 41  2  0  0  0
 37 38  2  0  0  0
 37 69  1  0  0  0
 38 39  1  0  0  0
 39 40  2  0  0  0
 39 70  1  0  0  0
 40 41  1  0  0  0
 40 71  1  0  0  0
 42 72  1  0  0  0
M  END
> <chembl_id>
CHEMBL4108223

> <chembl_pref_name>
None

> <i_m_ct_stereo_status>
1

> <s_m_source_file>
sdf/actives_sanitized.sdf

> <i_m_source_file_index>
145

> <i_lp_mmshare_version>
49012

> <i_f3d_flags>
0

> <s_epik_input>
W0NIM11PQyg9TylbTkhdYyhbY0hdW2NIXTEpW2NIXWMoYzEyKVtOSF1DKD1PKVtDQEhdKFtDSDNdKVtDSDJdW0NIMl1bQ0gyXVtDQEBIXShjM1tjSF1jMltjSF1bY0hdbjMpTjRbQ0gyXVtDSDJdQyg9W0NIXUM0PU8pYzVjKEYpW2NIXVtjSF1bY0hdYzVDI04=

> <s_epik_cmdline>
J2VwaWtfcHl0aG9uJywgJy1waHQnLCAnMC41JywgJy1waCcsICc3LjUnLCAnLW50JywgJy1tYScsICcyMDAnLCAnLWltYWUnLCAnPGluZmlsZS5tYWU+JywgJy1vbWFlJywgJzxvdXRmaWxlLm1hZT4n

> <r_lp_tautomer_probability>
1

> <r_epik_Ionization_Penalty>
  0.0001

> <r_epik_Ionization_Penalty_Charging>
  0.0000

> <r_epik_Ionization_Penalty_Neutral>
  0.0001

> <r_epik_State_Penalty>
 -0.0000

> <r_epik_Charging_Adjusted_Penalty>
0

> <i_epik_Tot_Q>
0

> <i_epik_Tot_abs_Q>
0

> <s_epik_Chemistry_Notes>
This compound has an ester and may undergo hydrolysis at high or low pH.

> <s_lp_Force_Field>
OPLS3e

> <r_lp_Energy>
97.715271

> <b_lp_Chiralities_Consistent>
1

> <s_lp_Variant>
sdf/actives_sanitized.sdf:145-1

$$$$
sdf/actives_sanitized.sdf:146
                    3D
 Schrodinger Suite 2020-1.
 80 85  0  0  1  0            999 V2000
  -11.1133   -4.4655   -2.6131 C   0  0  0  0  0  0
   -9.7609   -4.5626   -2.1871 O   0  0  0  0  0  0
   -8.8315   -3.6912   -2.6292 C   0  0  0  0  0  0
   -9.0626   -2.7658   -3.4104 O   0  0  0  0  0  0
   -7.6072   -4.0336   -2.0626 N   0  0  0  0  0  0
   -6.3505   -3.4215   -2.2091 C   0  0  0  0  0  0
   -5.2672   -4.0832   -1.6290 C   0  0  0  0  0  0
   -3.9800   -3.5600   -1.7322 C   0  0  0  0  0  0
   -3.7406   -2.3630   -2.4154 C   0  0  0  0  0  0
   -4.8399   -1.6722   -2.9725 C   0  0  0  0  0  0
   -4.7116   -0.4679   -3.6845 N   0  0  0  0  0  0
   -4.4128    0.7603   -3.2024 C   0  0  0  0  0  0
   -4.3936    1.7182   -3.9744 O   0  0  0  0  0  0
   -4.0933    1.0101   -1.7040 C   0  0  2  0  0  0
   -5.2146    1.8286   -1.0317 C   0  0  0  0  0  0
   -2.7021    1.6911   -1.5417 C   0  0  0  0  0  0
   -2.0847    1.5961   -0.1209 C   0  0  0  0  0  0
   -0.5362    1.4761   -0.0933 C   0  0  0  0  0  0
    0.0394    0.0266   -0.2092 C   0  0  2  0  0  0
    1.5189   -0.0311   -0.0969 N   0  0  0  0  0  0
    2.3494    1.0070   -0.7794 C   0  0  0  0  0  0
    3.7773    0.5136   -1.1388 C   0  0  0  0  0  0
    4.3582   -0.2308    0.0483 C   0  0  0  0  0  0
    3.5233   -0.9709    0.8029 C   0  0  0  0  0  0
    2.0922   -1.0601    0.6097 C   0  0  0  0  0  0
    1.4667   -2.0198    1.0642 O   0  0  0  0  0  0
    5.8293   -0.3186    0.2316 C   0  0  0  0  0  0
    6.5133    0.0347    1.4184 C   0  0  0  0  0  0
    7.9069   -0.0851    1.5098 C   0  0  0  0  0  0
    8.6814   -0.5471    0.4449 C   0  0  0  0  0  0
    8.0337   -0.8973   -0.7469 C   0  0  0  0  0  0
    8.3931   -1.3902   -2.0369 C   0  0  0  0  0  0
    9.6676   -1.6654   -2.4400 N   0  0  0  0  0  0
    7.3452   -1.5553   -2.8109 N   0  0  0  0  0  0
    6.2213   -1.1761   -2.0649 O   0  0  0  0  0  0
    6.6369   -0.7757   -0.8263 C   0  0  0  0  0  0
    5.8094    0.5606    2.5864 C   0  0  0  0  0  0
    5.2515    0.9772    3.5109 N   0  0  0  0  0  0
   -0.5082   -0.7172   -1.4309 C   0  0  0  0  0  0
   -1.7150   -1.4093   -1.3276 C   0  0  0  0  0  0
   -2.3521   -1.8431   -2.4917 C   0  0  0  0  0  0
   -1.6901   -1.6883   -3.7152 C   0  0  0  0  0  0
   -0.4288   -1.0678   -3.7397 C   0  0  0  0  0  0
    0.3282   -0.8584   -4.8747 O   0  0  0  0  0  0
   -0.1770   -1.3061   -6.1276 C   0  0  0  0  0  0
    0.1484   -0.5744   -2.6140 N   0  0  0  0  0  0
   -6.1277   -2.2103   -2.8815 C   0  0  0  0  0  0
  -11.7037   -5.2579   -2.1531 H   0  0  0  0  0  0
  -11.1922   -4.5691   -3.6964 H   0  0  0  0  0  0
  -11.5481   -3.5075   -2.3240 H   0  0  0  0  0  0
   -7.6167   -4.8453   -1.4627 H   0  0  0  0  0  0
   -5.4132   -5.0140   -1.0993 H   0  0  0  0  0  0
   -3.1584   -4.0981   -1.2812 H   0  0  0  0  0  0
   -4.9904   -0.5131   -4.6539 H   0  0  0  0  0  0
   -4.0625    0.0535   -1.1874 H   0  0  0  0  0  0
   -6.1819    1.3328   -1.1278 H   0  0  0  0  0  0
   -5.3100    2.8224   -1.4719 H   0  0  0  0  0  0
   -5.0239    1.9567    0.0342 H   0  0  0  0  0  0
   -2.0074    1.2603   -2.2619 H   0  0  0  0  0  0
   -2.7624    2.7399   -1.8379 H   0  0  0  0  0  0
   -2.3827    2.4868    0.4341 H   0  0  0  0  0  0
   -2.5146    0.7640    0.4376 H   0  0  0  0  0  0
   -0.1201    2.1299   -0.8601 H   0  0  0  0  0  0
   -0.1910    1.8886    0.8559 H   0  0  0  0  0  0
   -0.3675   -0.4954    0.6594 H   0  0  0  0  0  0
    1.8260    1.4719   -1.6146 H   0  0  0  0  0  0
    2.4734    1.8043   -0.0453 H   0  0  0  0  0  0
    3.6917   -0.1721   -1.9829 H   0  0  0  0  0  0
    4.4124    1.3443   -1.4483 H   0  0  0  0  0  0
    3.9383   -1.5747    1.5979 H   0  0  0  0  0  0
    8.4175    0.1895    2.4231 H   0  0  0  0  0  0
    9.7543   -0.6279    0.5413 H   0  0  0  0  0  0
   10.4581   -1.5342   -1.8259 H   0  0  0  0  0  0
    9.8639   -2.0115   -3.3683 H   0  0  0  0  0  0
   -2.2160   -1.4898   -0.3735 H   0  0  0  0  0  0
   -2.1684   -2.0280   -4.6216 H   0  0  0  0  0  0
    0.5454   -1.0775   -6.9109 H   0  0  0  0  0  0
   -1.1111   -0.8033   -6.3832 H   0  0  0  0  0  0
   -0.3388   -2.3852   -6.1322 H   0  0  0  0  0  0
   -6.9417   -1.6629   -3.3302 H   0  0  0  0  0  0
  1  2  1  0  0  0
  1 48  1  0  0  0
  1 49  1  0  0  0
  1 50  1  0  0  0
  2  3  1  0  0  0
  3  4  2  0  0  0
  3  5  1  0  0  0
  5  6  1  0  0  0
  5 51  1  0  0  0
  6  7  2  0  0  0
  6 47  1  0  0  0
  7  8  1  0  0  0
  7 52  1  0  0  0
  8  9  2  0  0  0
  8 53  1  0  0  0
  9 10  1  0  0  0
  9 41  1  0  0  0
 10 11  1  0  0  0
 10 47  2  0  0  0
 11 12  1  0  0  0
 11 54  1  0  0  0
 12 13  2  0  0  0
 12 14  1  0  0  0
 14 15  1  0  0  0
 14 16  1  0  0  0
 14 55  1  0  0  0
 15 56  1  0  0  0
 15 57  1  0  0  0
 15 58  1  0  0  0
 16 17  1  0  0  0
 16 59  1  0  0  0
 16 60  1  0  0  0
 17 18  1  0  0  0
 17 61  1  0  0  0
 17 62  1  0  0  0
 18 19  1  0  0  0
 18 63  1  0  0  0
 18 64  1  0  0  0
 19 20  1  0  0  0
 19 39  1  0  0  0
 19 65  1  0  0  0
 20 21  1  0  0  0
 20 25  1  0  0  0
 21 22  1  0  0  0
 21 66  1  0  0  0
 21 67  1  0  0  0
 22 23  1  0  0  0
 22 68  1  0  0  0
 22 69  1  0  0  0
 23 24  2  0  0  0
 23 27  1  0  0  0
 24 25  1  0  0  0
 24 70  1  0  0  0
 25 26  2  0  0  0
 27 28  2  0  0  0
 27 36  1  0  0  0
 28 29  1  0  0  0
 28 37  1  0  0  0
 29 30  2  0  0  0
 29 71  1  0  0  0
 30 31  1  0  0  0
 30 72  1  0  0  0
 31 32  1  0  0  0
 31 36  2  0  0  0
 32 33  1  0  0  0
 32 34  2  0  0  0
 33 73  1  0  0  0
 33 74  1  0  0  0
 34 35  1  0  0  0
 35 36  1  0  0  0
 37 38  3  0  0  0
 39 40  1  0  0  0
 39 46  2  0  0  0
 40 41  2  0  0  0
 40 75  1  0  0  0
 41 42  1  0  0  0
 42 43  2  0  0  0
 42 76  1  0  0  0
 43 44  1  0  0  0
 43 46  1  0  0  0
 44 45  1  0  0  0
 45 77  1  0  0  0
 45 78  1  0  0  0
 45 79  1  0  0  0
 47 80  1  0  0  0
M  END
> <chembl_id>
CHEMBL4112906

> <chembl_pref_name>
None

> <i_m_ct_stereo_status>
1

> <s_m_source_file>
sdf/actives_sanitized.sdf

> <i_m_source_file_index>
146

> <i_lp_mmshare_version>
49012

> <i_f3d_flags>
0

> <s_epik_input>
W0NIM11PQyg9TylbTkhdYyhbY0hdW2NIXTEpW2NIXWMoYzEyKVtOSF1DKD1PKVtDQEhdKFtDSDNdKVtDSDJdW0NIMl1bQ0gyXVtDQEBIXShjM1tjSF1jMltjSF1jKG4zKU9bQ0gzXSlONFtDSDJdW0NIMl1DKD1bQ0hdQzQ9TyljKGMoQyNOKVtjSF1bY0hdNSljKGM1NilvbmM2W05IMl0=

> <s_epik_cmdline>
J2VwaWtfcHl0aG9uJywgJy1waHQnLCAnMC41JywgJy1waCcsICc3LjUnLCAnLW50JywgJy1tYScsICcyMDAnLCAnLWltYWUnLCAnPGluZmlsZS5tYWU+JywgJy1vbWFlJywgJzxvdXRmaWxlLm1hZT4n

> <r_lp_tautomer_probability>
1

> <r_epik_Ionization_Penalty>
  0.0001

> <r_epik_Ionization_Penalty_Charging>
  0.0000

> <r_epik_Ionization_Penalty_Neutral>
  0.0001

> <r_epik_State_Penalty>
 -0.0000

> <r_epik_Charging_Adjusted_Penalty>
0

> <i_epik_Tot_Q>
0

> <i_epik_Tot_abs_Q>
0

> <s_epik_Chemistry_Notes>
This compound has an ester and may undergo hydrolysis at high or low pH.

> <s_lp_Force_Field>
OPLS3e

> <r_lp_Energy>
102.576072

> <b_lp_Chiralities_Consistent>
1

> <s_lp_Variant>
sdf/actives_sanitized.sdf:146-1

$$$$
sdf/actives_sanitized.sdf:147
                    3D
 Schrodinger Suite 2020-1.
 86 91  0  0  1  0            999 V2000
   -4.3743    1.1911    2.8258 C   0  0  0  0  0  0
   -4.6319    2.6058    2.2658 C   0  0  2  0  0  0
   -5.7176    3.3352    3.1237 C   0  0  0  0  0  0
   -6.0297    4.8111    2.7586 C   0  0  0  0  0  0
   -5.1258    5.8658    3.4540 C   0  0  0  0  0  0
   -4.7250    7.1147    2.6026 C   0  0  2  0  0  0
   -5.8244    8.1096    2.4904 N   0  0  0  0  0  0
   -7.0985    7.7112    1.8239 C   0  0  0  0  0  0
   -7.8665    8.9241    1.2349 C   0  0  0  0  0  0
   -7.9349   10.0202    2.2852 C   0  0  0  0  0  0
   -6.8649   10.1801    3.0904 C   0  0  0  0  0  0
   -5.6892    9.3351    3.0965 C   0  0  0  0  0  0
   -4.6449    9.7473    3.6041 O   0  0  0  0  0  0
   -8.9962   11.0592    2.2389 C   0  0  0  0  0  0
   -9.3839   11.6486    1.0224 C   0  0  0  0  0  0
   -8.7850   11.3042   -0.1417 F   0  0  0  0  0  0
  -10.3844   12.6196    0.9902 C   0  0  0  0  0  0
  -11.0132   13.0189    2.1660 C   0  0  0  0  0  0
  -10.6450   12.4451    3.3808 C   0  0  0  0  0  0
  -11.4390   12.9462    4.8316 Cl  0  0  0  0  0  0
   -9.6443   11.4691    3.4190 C   0  0  0  0  0  0
   -9.3156   10.9090    4.6086 F   0  0  0  0  0  0
   -4.0467    6.7307    1.2721 C   0  0  0  0  0  0
   -3.1599    5.6522    1.2392 C   0  0  0  0  0  0
   -2.7251    5.1506    0.0148 C   0  0  0  0  0  0
   -3.0880    5.8254   -1.1548 C   0  0  0  0  0  0
   -3.9034    6.9546   -1.0481 C   0  0  0  0  0  0
   -4.3962    7.4002    0.1369 N   0  0  0  0  0  0
   -1.9858    3.8685   -0.0057 C   0  0  0  0  0  0
   -0.5904    3.8725    0.0717 C   0  0  0  0  0  0
    0.1258    2.6769    0.1032 C   0  0  0  0  0  0
   -0.5439    1.4468    0.0573 C   0  0  0  0  0  0
    0.1223    0.2102    0.0729 N   0  0  0  0  0  0
    1.5446    0.0554   -0.0304 C   0  0  2  0  0  0
    2.0143    0.3731   -1.3151 O   0  0  0  0  0  0
    3.4414    0.3747   -1.4260 C   0  0  2  0  0  0
    3.8259    0.9717   -2.7990 C   0  0  0  0  0  0
    3.3870    0.1672   -3.8767 O   0  0  0  0  0  0
    3.9908   -1.0508   -1.1683 C   0  0  1  0  0  0
    5.4076   -1.0804   -1.2188 O   0  0  0  0  0  0
    3.4676   -1.5931    0.1783 C   0  0  2  0  0  0
    3.8333   -2.9512    0.3640 O   0  0  0  0  0  0
    1.9365   -1.4002    0.3163 C   0  0  1  0  0  0
    1.5000   -1.7887    1.6105 O   0  0  0  0  0  0
   -1.9381    1.4366   -0.0213 C   0  0  0  0  0  0
   -2.6612    2.6329   -0.0439 C   0  0  0  0  0  0
   -4.0523    2.5616   -0.2089 N   0  0  0  0  0  0
   -4.9956    2.5154    0.7574 C   0  0  0  0  0  0
   -6.1757    2.3841    0.4342 O   0  0  0  0  0  0
   -3.5786    0.6794    2.2831 H   0  0  0  0  0  0
   -5.2654    0.5638    2.7662 H   0  0  0  0  0  0
   -4.0700    1.2311    3.8722 H   0  0  0  0  0  0
   -3.7001    3.1551    2.3750 H   0  0  0  0  0  0
   -6.6479    2.7675    3.0588 H   0  0  0  0  0  0
   -5.4413    3.2894    4.1785 H   0  0  0  0  0  0
   -6.0059    4.9272    1.6761 H   0  0  0  0  0  0
   -7.0636    5.0234    3.0334 H   0  0  0  0  0  0
   -5.6097    6.1991    4.3736 H   0  0  0  0  0  0
   -4.2163    5.3833    3.8119 H   0  0  0  0  0  0
   -3.9033    7.5657    3.1605 H   0  0  0  0  0  0
   -6.9670    6.8834    1.1279 H   0  0  0  0  0  0
   -7.7347    7.3234    2.6208 H   0  0  0  0  0  0
   -7.3101    9.2816    0.3672 H   0  0  0  0  0  0
   -8.8602    8.6294    0.8957 H   0  0  0  0  0  0
   -6.8455   11.0211    3.7697 H   0  0  0  0  0  0
  -10.6710   13.0677    0.0499 H   0  0  0  0  0  0
  -11.7860   13.7729    2.1322 H   0  0  0  0  0  0
   -2.8692    5.1487    2.1470 H   0  0  0  0  0  0
   -2.7669    5.4702   -2.1231 H   0  0  0  0  0  0
   -4.2068    7.4991   -1.9299 H   0  0  0  0  0  0
   -0.0539    4.8096    0.1127 H   0  0  0  0  0  0
    1.2028    2.7266    0.1569 H   0  0  0  0  0  0
   -0.4160   -0.5634   -0.2898 H   0  0  0  0  0  0
    2.0082    0.7803    0.6414 H   0  0  0  0  0  0
    3.8435    1.0509   -0.6677 H   0  0  0  0  0  0
    3.4002    1.9698   -2.9100 H   0  0  0  0  0  0
    4.9074    1.0877   -2.8759 H   0  0  0  0  0  0
    3.6567    0.5825   -4.6994 H   0  0  0  0  0  0
    3.6440   -1.7103   -1.9659 H   0  0  0  0  0  0
    5.7515   -0.5620   -0.4876 H   0  0  0  0  0  0
    3.9457   -1.0422    0.9911 H   0  0  0  0  0  0
    4.7119   -3.0814   -0.0018 H   0  0  0  0  0  0
    1.4271   -2.0550   -0.3943 H   0  0  0  0  0  0
    1.9599   -2.5962    1.8528 H   0  0  0  0  0  0
   -2.4651    0.4936   -0.0746 H   0  0  0  0  0  0
   -4.3721    2.5067   -1.1649 H   0  0  0  0  0  0
  1  2  1  0  0  0
  1 50  1  0  0  0
  1 51  1  0  0  0
  1 52  1  0  0  0
  2  3  1  0  0  0
  2 48  1  0  0  0
  2 53  1  0  0  0
  3  4  1  0  0  0
  3 54  1  0  0  0
  3 55  1  0  0  0
  4  5  1  0  0  0
  4 56  1  0  0  0
  4 57  1  0  0  0
  5  6  1  0  0  0
  5 58  1  0  0  0
  5 59  1  0  0  0
  6  7  1  0  0  0
  6 23  1  0  0  0
  6 60  1  0  0  0
  7  8  1  0  0  0
  7 12  1  0  0  0
  8  9  1  0  0  0
  8 61  1  0  0  0
  8 62  1  0  0  0
  9 10  1  0  0  0
  9 63  1  0  0  0
  9 64  1  0  0  0
 10 11  2  0  0  0
 10 14  1  0  0  0
 11 12  1  0  0  0
 11 65  1  0  0  0
 12 13  2  0  0  0
 14 15  2  0  0  0
 14 21  1  0  0  0
 15 16  1  0  0  0
 15 17  1  0  0  0
 17 18  2  0  0  0
 17 66  1  0  0  0
 18 19  1  0  0  0
 18 67  1  0  0  0
 19 20  1  0  0  0
 19 21  2  0  0  0
 21 22  1  0  0  0
 23 24  1  0  0  0
 23 28  2  0  0  0
 24 25  2  0  0  0
 24 68  1  0  0  0
 25 26  1  0  0  0
 25 29  1  0  0  0
 26 27  2  0  0  0
 26 69  1  0  0  0
 27 28  1  0  0  0
 27 70  1  0  0  0
 29 30  2  0  0  0
 29 46  1  0  0  0
 30 31  1  0  0  0
 30 71  1  0  0  0
 31 32  2  0  0  0
 31 72  1  0  0  0
 32 33  1  0  0  0
 32 45  1  0  0  0
 33 34  1  0  0  0
 33 73  1  0  0  0
 34 35  1  0  0  0
 34 43  1  0  0  0
 34 74  1  0  0  0
 35 36  1  0  0  0
 36 37  1  0  0  0
 36 39  1  0  0  0
 36 75  1  0  0  0
 37 38  1  0  0  0
 37 76  1  0  0  0
 37 77  1  0  0  0
 38 78  1  0  0  0
 39 40  1  0  0  0
 39 41  1  0  0  0
 39 79  1  0  0  0
 40 80  1  0  0  0
 41 42  1  0  0  0
 41 43  1  0  0  0
 41 81  1  0  0  0
 42 82  1  0  0  0
 43 44  1  0  0  0
 43 83  1  0  0  0
 44 84  1  0  0  0
 45 46  2  0  0  0
 45 85  1  0  0  0
 46 47  1  0  0  0
 47 48  1  0  0  0
 47 86  1  0  0  0
 48 49  2  0  0  0
M  END
> <chembl_id>
CHEMBL4114561

> <chembl_pref_name>
None

> <i_m_ct_stereo_status>
1

> <s_m_source_file>
sdf/actives_sanitized.sdf

> <i_m_source_file_index>
147

> <i_lp_mmshare_version>
49012

> <i_f3d_flags>
0

> <s_epik_input>
W09IXVtDQEBIXTFbQ0BASF0oW09IXSlbQ0BIXShbT0hdKVtDQEBIXShbQ0gyXVtPSF0pT1tDQEhdMVtOSF1jKFtjSF1bY0hdMilbY0hdYyhjMmMoW2NIXWMzNClbY0hdW2NIXW40KVtOSF1DKD1PKVtDQEhdKFtDSDNdKVtDSDJdW0NIMl1bQ0gyXVtDQEBIXTNONVtDSDJdW0NIMl1DKD1bQ0hdQzU9TyljNmMoRilbY0hdW2NIXWMoQ2wpYzZG

> <s_epik_cmdline>
J2VwaWtfcHl0aG9uJywgJy1waHQnLCAnMC41JywgJy1waCcsICc3LjUnLCAnLW50JywgJy1tYScsICcyMDAnLCAnLWltYWUnLCAnPGluZmlsZS5tYWU+JywgJy1vbWFlJywgJzxvdXRmaWxlLm1hZT4n

> <r_lp_tautomer_probability>
1

> <r_epik_Ionization_Penalty>
  0.0001

> <r_epik_Ionization_Penalty_Charging>
  0.0000

> <r_epik_Ionization_Penalty_Neutral>
  0.0001

> <r_epik_State_Penalty>
 -0.0000

> <r_epik_Charging_Adjusted_Penalty>
0

> <i_epik_Tot_Q>
0

> <i_epik_Tot_abs_Q>
0

> <s_epik_Chemistry_Notes>
This compound contains an acetal/aminal-like group ( X-CH(R)-Y where X, Y are N, S, or O) that may be acid/base labile, releasing an aldehyde.

> <s_lp_Force_Field>
OPLS3e

> <r_lp_Energy>
103.837388

> <b_lp_Chiralities_Consistent>
1

> <s_lp_Variant>
sdf/actives_sanitized.sdf:147-1

$$$$
sdf/actives_sanitized.sdf:148
                    3D
 Schrodinger Suite 2020-1.
 69 74  0  0  1  0            999 V2000
   -5.2445    1.8145   -1.5114 C   0  0  0  0  0  0
   -4.0976    0.8846   -1.9573 C   0  0  2  0  0  0
   -2.7163    1.6019   -1.9066 C   0  0  0  0  0  0
   -2.1440    1.8364   -0.4829 C   0  0  0  0  0  0
   -0.5963    1.7380   -0.3855 C   0  0  0  0  0  0
   -0.0244    0.3077   -0.1219 C   0  0  2  0  0  0
    1.4447    0.2680    0.1098 N   0  0  0  0  0  0
    2.3584    1.1447   -0.6845 C   0  0  0  0  0  0
    3.7344    1.3469    0.0041 C   0  0  0  0  0  0
    4.2677   -0.0101    0.4232 C   0  0  0  0  0  0
    3.3852   -0.9406    0.8369 C   0  0  0  0  0  0
    1.9478   -0.7745    0.8545 C   0  0  0  0  0  0
    1.2555   -1.5291    1.5405 O   0  0  0  0  0  0
    5.7275   -0.2346    0.5553 C   0  0  0  0  0  0
    6.4712    0.6859    1.3063 C   0  0  0  0  0  0
    7.8381    0.5079    1.5151 C   0  0  0  0  0  0
    8.7258    1.6540    2.4520 Cl  0  0  0  0  0  0
    8.4859   -0.5989    0.9732 C   0  0  0  0  0  0
    7.7695   -1.5220    0.2157 C   0  0  0  0  0  0
    6.3978   -1.3463   -0.0088 C   0  0  0  0  0  0
    5.7408   -2.2983   -0.8208 N   0  0  0  0  0  0
    5.7969   -3.6695   -0.7411 C   0  0  0  0  0  0
    5.0024   -4.1159   -1.7845 C   0  0  0  0  0  0
    4.5131   -3.0931   -2.4584 N   0  0  0  0  0  0
    4.9827   -1.9330   -1.8678 N   0  0  0  0  0  0
   -0.5100   -0.6955   -1.1740 C   0  0  0  0  0  0
   -1.7221   -1.3597   -0.9783 C   0  0  0  0  0  0
   -2.2963   -2.0586   -2.0430 C   0  0  0  0  0  0
   -1.5682   -2.1814   -3.2329 C   0  0  0  0  0  0
   -0.3148   -1.5711   -3.3216 C   0  0  0  0  0  0
    0.2108   -0.8174   -2.3225 N   0  0  0  0  0  0
   -3.6838   -2.5685   -1.9129 C   0  0  0  0  0  0
   -3.9430   -3.5973   -0.9985 C   0  0  0  0  0  0
   -5.2334   -4.0946   -0.8235 C   0  0  0  0  0  0
   -5.4600   -5.0908    0.0622 F   0  0  0  0  0  0
   -6.2888   -3.5661   -1.5621 C   0  0  0  0  0  0
   -6.0549   -2.5362   -2.4706 C   0  0  0  0  0  0
   -4.7655   -2.0214   -2.6407 C   0  0  0  0  0  0
   -4.6176   -0.9993   -3.5919 N   0  0  0  0  0  0
   -4.3651    0.3121   -3.3751 C   0  0  0  0  0  0
   -4.3446    1.0838   -4.3332 O   0  0  0  0  0  0
   -6.2053    1.2978   -1.5259 H   0  0  0  0  0  0
   -5.3327    2.6890   -2.1580 H   0  0  0  0  0  0
   -5.0877    2.1721   -0.4934 H   0  0  0  0  0  0
   -4.0766    0.0626   -1.2455 H   0  0  0  0  0  0
   -1.9960    1.0275   -2.4887 H   0  0  0  0  0  0
   -2.7708    2.5568   -2.4329 H   0  0  0  0  0  0
   -2.4596    2.8270   -0.1523 H   0  0  0  0  0  0
   -2.5909    1.1484    0.2356 H   0  0  0  0  0  0
   -0.1677    2.1719   -1.2888 H   0  0  0  0  0  0
   -0.2729    2.3808    0.4346 H   0  0  0  0  0  0
   -0.4872    0.0060    0.8202 H   0  0  0  0  0  0
    2.5872    0.5713   -1.5847 H   0  0  0  0  0  0
    1.9001    2.0632   -1.0437 H   0  0  0  0  0  0
    4.4292    1.8607   -0.6613 H   0  0  0  0  0  0
    3.5916    1.9726    0.8862 H   0  0  0  0  0  0
    3.7620   -1.8843    1.2058 H   0  0  0  0  0  0
    5.9829    1.5425    1.7489 H   0  0  0  0  0  0
    9.5446   -0.7421    1.1332 H   0  0  0  0  0  0
    8.2926   -2.3666   -0.2100 H   0  0  0  0  0  0
    6.3681   -4.1752    0.0235 H   0  0  0  0  0  0
    4.7898   -5.1416   -2.0480 H   0  0  0  0  0  0
   -2.2724   -1.2269   -0.0578 H   0  0  0  0  0  0
   -1.9725   -2.7220   -4.0765 H   0  0  0  0  0  0
    0.2724   -1.6478   -4.2247 H   0  0  0  0  0  0
   -3.1346   -4.0197   -0.4186 H   0  0  0  0  0  0
   -7.2884   -3.9533   -1.4306 H   0  0  0  0  0  0
   -6.8841   -2.1357   -3.0367 H   0  0  0  0  0  0
   -4.8432   -1.2617   -4.5404 H   0  0  0  0  0  0
  1  2  1  0  0  0
  1 42  1  0  0  0
  1 43  1  0  0  0
  1 44  1  0  0  0
  2  3  1  0  0  0
  2 40  1  0  0  0
  2 45  1  0  0  0
  3  4  1  0  0  0
  3 46  1  0  0  0
  3 47  1  0  0  0
  4  5  1  0  0  0
  4 48  1  0  0  0
  4 49  1  0  0  0
  5  6  1  0  0  0
  5 50  1  0  0  0
  5 51  1  0  0  0
  6  7  1  0  0  0
  6 26  1  0  0  0
  6 52  1  0  0  0
  7  8  1  0  0  0
  7 12  1  0  0  0
  8  9  1  0  0  0
  8 53  1  0  0  0
  8 54  1  0  0  0
  9 10  1  0  0  0
  9 55  1  0  0  0
  9 56  1  0  0  0
 10 11  2  0  0  0
 10 14  1  0  0  0
 11 12  1  0  0  0
 11 57  1  0  0  0
 12 13  2  0  0  0
 14 15  2  0  0  0
 14 20  1  0  0  0
 15 16  1  0  0  0
 15 58  1  0  0  0
 16 17  1  0  0  0
 16 18  2  0  0  0
 18 19  1  0  0  0
 18 59  1  0  0  0
 19 20  2  0  0  0
 19 60  1  0  0  0
 20 21  1  0  0  0
 21 22  1  0  0  0
 21 25  1  0  0  0
 22 23  2  0  0  0
 22 61  1  0  0  0
 23 24  1  0  0  0
 23 62  1  0  0  0
 24 25  2  0  0  0
 26 27  1  0  0  0
 26 31  2  0  0  0
 27 28  2  0  0  0
 27 63  1  0  0  0
 28 29  1  0  0  0
 28 32  1  0  0  0
 29 30  2  0  0  0
 29 64  1  0  0  0
 30 31  1  0  0  0
 30 65  1  0  0  0
 32 33  2  0  0  0
 32 38  1  0  0  0
 33 34  1  0  0  0
 33 66  1  0  0  0
 34 35  1  0  0  0
 34 36  2  0  0  0
 36 37  1  0  0  0
 36 67  1  0  0  0
 37 38  2  0  0  0
 37 68  1  0  0  0
 38 39  1  0  0  0
 39 40  1  0  0  0
 39 69  1  0  0  0
 40 41  2  0  0  0
M  END
> <chembl_id>
CHEMBL4114452

> <chembl_pref_name>
None

> <i_m_ct_stereo_status>
1

> <s_m_source_file>
sdf/actives_sanitized.sdf

> <i_m_source_file_index>
148

> <i_lp_mmshare_version>
49012

> <i_f3d_flags>
0

> <s_epik_input>
bjFbY0hdW2NIXWMoW2NIXWMxMiljM2MoW2NIXVtjSF1jKEYpW2NIXTMpW05IXUMoPU8pW0NASF0oW0NIM10pW0NIMl1bQ0gyXVtDSDJdW0NAQEhdMk40W0NIMl1bQ0gyXUMoPVtDSF1DND1PKWM1W2NIXWMoQ2wpW2NIXVtjSF1jNS1uNltjSF1bY0hdbm42

> <s_epik_cmdline>
J2VwaWtfcHl0aG9uJywgJy1waHQnLCAnMC41JywgJy1waCcsICc3LjUnLCAnLW50JywgJy1tYScsICcyMDAnLCAnLWltYWUnLCAnPGluZmlsZS5tYWU+JywgJy1vbWFlJywgJzxvdXRmaWxlLm1hZT4n

> <r_lp_tautomer_probability>
1

> <r_epik_Ionization_Penalty>
  0.0001

> <r_epik_Ionization_Penalty_Charging>
  0.0000

> <r_epik_Ionization_Penalty_Neutral>
  0.0001

> <r_epik_State_Penalty>
 -0.0000

> <r_epik_Charging_Adjusted_Penalty>
0

> <i_epik_Tot_Q>
0

> <i_epik_Tot_abs_Q>
0

> <s_lp_Force_Field>
OPLS3e

> <r_lp_Energy>
97.693863

> <b_lp_Chiralities_Consistent>
1

> <s_lp_Variant>
sdf/actives_sanitized.sdf:148-1

$$$$
sdf/actives_sanitized.sdf:149
                    3D
 Schrodinger Suite 2020-1.
 71 75  0  0  1  0            999 V2000
   -3.0465    1.7878   -0.4518 C   0  0  0  0  0  0
   -1.9487    0.9215   -0.1988 O   0  0  0  0  0  0
   -0.6809    1.3764   -0.2604 C   0  0  0  0  0  0
   -0.3728    2.5400   -0.5266 O   0  0  0  0  0  0
    0.1769    0.3186    0.0267 N   0  0  0  0  0  0
    1.5815    0.2907    0.0705 C   0  0  0  0  0  0
    2.4093    1.3773   -0.2468 C   0  0  0  0  0  0
    3.7950    1.2496   -0.1718 C   0  0  0  0  0  0
    4.3919    0.0467    0.2203 C   0  0  0  0  0  0
    3.5570   -1.0547    0.5134 C   0  0  0  0  0  0
    4.0572   -2.3064    0.9075 N   0  0  0  0  0  0
    4.7180   -3.2026    0.1403 C   0  0  0  0  0  0
    5.1049   -4.2600    0.6344 O   0  0  0  0  0  0
    4.9833   -2.9490   -1.3597 C   0  0  0  0  0  0
    6.4731   -3.1177   -1.7508 C   0  0  0  0  0  0
    6.8128   -2.4456   -3.0985 C   0  0  0  0  0  0
    8.3138   -2.3835   -3.4580 C   0  0  0  0  0  0
    9.2554   -1.6175   -2.4940 C   0  0  0  0  0  0
    8.8326   -0.1573   -2.1324 C   0  0  2  0  0  0
    9.9678    0.7989   -2.1064 N   0  0  0  0  0  0
   11.2306    0.4238   -1.4042 C   0  0  0  0  0  0
   12.4517    1.2187   -1.9359 C   0  0  0  0  0  0
   12.0965    2.6964   -1.9678 C   0  0  0  0  0  0
   10.8270    3.0319   -2.2770 C   0  0  0  0  0  0
    9.7439    2.0965   -2.5020 C   0  0  0  0  0  0
    8.7155    2.4772   -3.0649 O   0  0  0  0  0  0
   13.1583    3.7343   -1.9527 C   0  0  0  0  0  0
   13.0337    4.8648   -1.1261 C   0  0  0  0  0  0
   11.9527    5.0196   -0.3251 F   0  0  0  0  0  0
   14.0281    5.8421   -1.1030 C   0  0  0  0  0  0
   15.1614    5.7072   -1.8998 C   0  0  0  0  0  0
   15.3040    4.5928   -2.7239 C   0  0  0  0  0  0
   16.7159    4.4414   -3.7089 Cl  0  0  0  0  0  0
   14.3092    3.6101   -2.7520 C   0  0  0  0  0  0
   14.4629    2.5451   -3.5751 F   0  0  0  0  0  0
    8.0103   -0.1142   -0.8382 C   0  0  0  0  0  0
    6.6369    0.1426   -0.8774 C   0  0  0  0  0  0
    5.8746   -0.0368    0.2827 C   0  0  0  0  0  0
    6.5364   -0.3640    1.4729 C   0  0  0  0  0  0
    7.9204   -0.5356    1.4517 C   0  0  0  0  0  0
    8.6563   -0.4333    0.3173 N   0  0  0  0  0  0
    2.1670   -0.9187    0.4515 C   0  0  0  0  0  0
   -3.9819    1.2356   -0.3611 H   0  0  0  0  0  0
   -2.9942    2.2029   -1.4594 H   0  0  0  0  0  0
   -3.0678    2.6123    0.2623 H   0  0  0  0  0  0
   -0.2716   -0.5619    0.2327 H   0  0  0  0  0  0
    2.0120    2.3306   -0.5542 H   0  0  0  0  0  0
    4.4114    2.1030   -0.4164 H   0  0  0  0  0  0
    3.8321   -2.5888    1.8503 H   0  0  0  0  0  0
    4.3717   -3.6424   -1.9378 H   0  0  0  0  0  0
    4.6399   -1.9573   -1.6490 H   0  0  0  0  0  0
    7.1087   -2.7023   -0.9691 H   0  0  0  0  0  0
    6.7252   -4.1782   -1.7995 H   0  0  0  0  0  0
    6.2895   -2.9819   -3.8914 H   0  0  0  0  0  0
    6.4047   -1.4369   -3.1304 H   0  0  0  0  0  0
    8.6887   -3.4016   -3.5728 H   0  0  0  0  0  0
    8.4019   -1.9325   -4.4474 H   0  0  0  0  0  0
    9.4046   -2.2102   -1.5903 H   0  0  0  0  0  0
   10.2328   -1.6059   -2.9786 H   0  0  0  0  0  0
    8.1595    0.1499   -2.9348 H   0  0  0  0  0  0
   11.1008    0.7817   -0.3813 H   0  0  0  0  0  0
   11.3780   -0.6508   -1.3022 H   0  0  0  0  0  0
   13.3357    1.0351   -1.3240 H   0  0  0  0  0  0
   12.6697    0.8681   -2.9453 H   0  0  0  0  0  0
   10.5839    4.0773   -2.4066 H   0  0  0  0  0  0
   13.9221    6.7055   -0.4625 H   0  0  0  0  0  0
   15.9281    6.4680   -1.8759 H   0  0  0  0  0  0
    6.1520    0.3852   -1.8118 H   0  0  0  0  0  0
    5.9859   -0.5030    2.3921 H   0  0  0  0  0  0
    8.4569   -0.7937    2.3527 H   0  0  0  0  0  0
    1.5379   -1.7652    0.6924 H   0  0  0  0  0  0
  1  2  1  0  0  0
  1 43  1  0  0  0
  1 44  1  0  0  0
  1 45  1  0  0  0
  2  3  1  0  0  0
  3  4  2  0  0  0
  3  5  1  0  0  0
  5  6  1  0  0  0
  5 46  1  0  0  0
  6  7  2  0  0  0
  6 42  1  0  0  0
  7  8  1  0  0  0
  7 47  1  0  0  0
  8  9  2  0  0  0
  8 48  1  0  0  0
  9 10  1  0  0  0
  9 38  1  0  0  0
 10 11  1  0  0  0
 10 42  2  0  0  0
 11 12  1  0  0  0
 11 49  1  0  0  0
 12 13  2  0  0  0
 12 14  1  0  0  0
 14 15  1  0  0  0
 14 50  1  0  0  0
 14 51  1  0  0  0
 15 16  1  0  0  0
 15 52  1  0  0  0
 15 53  1  0  0  0
 16 17  1  0  0  0
 16 54  1  0  0  0
 16 55  1  0  0  0
 17 18  1  0  0  0
 17 56  1  0  0  0
 17 57  1  0  0  0
 18 19  1  0  0  0
 18 58  1  0  0  0
 18 59  1  0  0  0
 19 20  1  0  0  0
 19 36  1  0  0  0
 19 60  1  0  0  0
 20 21  1  0  0  0
 20 25  1  0  0  0
 21 22  1  0  0  0
 21 61  1  0  0  0
 21 62  1  0  0  0
 22 23  1  0  0  0
 22 63  1  0  0  0
 22 64  1  0  0  0
 23 24  2  0  0  0
 23 27  1  0  0  0
 24 25  1  0  0  0
 24 65  1  0  0  0
 25 26  2  0  0  0
 27 28  2  0  0  0
 27 34  1  0  0  0
 28 29  1  0  0  0
 28 30  1  0  0  0
 30 31  2  0  0  0
 30 66  1  0  0  0
 31 32  1  0  0  0
 31 67  1  0  0  0
 32 33  1  0  0  0
 32 34  2  0  0  0
 34 35  1  0  0  0
 36 37  1  0  0  0
 36 41  2  0  0  0
 37 38  2  0  0  0
 37 68  1  0  0  0
 38 39  1  0  0  0
 39 40  2  0  0  0
 39 69  1  0  0  0
 40 41  1  0  0  0
 40 70  1  0  0  0
 42 71  1  0  0  0
M  END
> <chembl_id>
CHEMBL3921526

> <chembl_pref_name>
None

> <i_m_ct_stereo_status>
1

> <s_m_source_file>
sdf/actives_sanitized.sdf

> <i_m_source_file_index>
149

> <i_lp_mmshare_version>
49012

> <i_f3d_flags>
0

> <s_epik_input>
W0NIM11PQyg9TylbTkhdYyhbY0hdW2NIXTEpW2NIXWMoYzEyKVtOSF1DKD1PKVtDSDJdW0NIMl1bQ0gyXVtDSDJdW0NIMl1bQ0BASF0oYzNbY0hdYzJbY0hdW2NIXW4zKU40W0NIMl1bQ0gyXUMoPVtDSF1DND1PKWM1YyhGKVtjSF1bY0hdYyhDbCljNUY=

> <s_epik_cmdline>
J2VwaWtfcHl0aG9uJywgJy1waHQnLCAnMC41JywgJy1waCcsICc3LjUnLCAnLW50JywgJy1tYScsICcyMDAnLCAnLWltYWUnLCAnPGluZmlsZS5tYWU+JywgJy1vbWFlJywgJzxvdXRmaWxlLm1hZT4n

> <r_lp_tautomer_probability>
1

> <r_epik_Ionization_Penalty>
  0.0001

> <r_epik_Ionization_Penalty_Charging>
  0.0000

> <r_epik_Ionization_Penalty_Neutral>
  0.0001

> <r_epik_State_Penalty>
 -0.0000

> <r_epik_Charging_Adjusted_Penalty>
0

> <i_epik_Tot_Q>
0

> <i_epik_Tot_abs_Q>
0

> <s_epik_Chemistry_Notes>
This compound has an ester and may undergo hydrolysis at high or low pH.

> <s_lp_Force_Field>
OPLS3e

> <r_lp_Energy>
90.524958

> <b_lp_Chiralities_Consistent>
1

> <s_lp_Variant>
sdf/actives_sanitized.sdf:149-1

$$$$
sdf/actives_sanitized.sdf:150
                    3D
 Schrodinger Suite 2020-1.
 59 63  0  0  1  0            999 V2000
   -0.5374   -0.6340   -1.4145 C   0  0  0  0  0  0
    0.0631    0.0624   -0.1824 C   0  0  1  0  0  0
    1.6217    0.0129   -0.1459 C   0  0  0  0  0  0
    2.1645   -1.3446   -0.0240 N   0  0  0  0  0  0
    2.7906   -2.0239   -1.0019 C   0  0  0  0  0  0
    3.1677   -3.4342   -0.6427 C   0  0  0  0  0  0
    3.0350   -1.5786   -2.1234 O   0  0  0  0  0  0
   -0.4921    1.4825   -0.0182 C   0  0  0  0  0  0
    0.0156    2.5533   -0.7687 C   0  0  0  0  0  0
   -0.5037    3.8384   -0.6099 C   0  0  0  0  0  0
   -1.5363    4.0667    0.2987 C   0  0  0  0  0  0
   -2.0521    3.0089    1.0465 C   0  0  0  0  0  0
   -1.5329    1.7237    0.8882 C   0  0  0  0  0  0
    4.4077   -3.7109   -0.0355 C   0  0  0  0  0  0
    4.7531   -5.0247    0.2838 C   0  0  0  0  0  0
    3.8823   -6.0842    0.0070 C   0  0  0  0  0  0
    2.6502   -5.8065   -0.5988 C   0  0  0  0  0  0
    2.2893   -4.4988   -0.9236 C   0  0  0  0  0  0
    0.7437   -4.2539   -1.6733 Cl  0  0  0  0  0  0
    4.2506   -7.4132    0.3361 N   0  0  0  0  0  0
    5.2093   -7.8677    1.2078 C   0  0  0  0  0  0
    5.2410   -9.1747    1.2258 N   0  0  0  0  0  0
    4.2875   -9.4904    0.3632 C   0  0  0  0  0  0
    3.6571   -8.4860   -0.2093 N   0  0  0  0  0  0
    5.5536   -2.4641    0.3409 Cl  0  0  0  0  0  0
    3.9611  -10.9292    0.0293 C   0  0  0  0  0  0
   -3.0560    3.2287    1.9252 F   0  0  0  0  0  0
   -1.6719   -1.3820   -1.2319 N   0  0  0  0  0  0
   -2.3449   -2.1021   -2.1689 C   0  0  0  0  0  0
   -0.0002   -0.5277   -2.5770 N   0  0  0  0  0  0
   -3.3565   -2.7270   -1.8572 O   0  0  0  0  0  0
   -0.5394   -1.2262   -3.6749 C   0  0  0  0  0  0
   -1.6982   -2.0219   -3.5507 C   0  0  0  0  0  0
   -2.2059   -2.7057   -4.6781 C   0  0  0  0  0  0
   -1.5349   -2.5797   -5.9001 C   0  0  0  0  0  0
   -0.3882   -1.7962   -6.0148 C   0  0  0  0  0  0
    0.1130   -1.1176   -4.9070 C   0  0  0  0  0  0
   -3.4515   -3.5856   -4.6385 C   0  0  0  0  0  0
    1.2296   -0.3618   -5.0421 F   0  0  0  0  0  0
   -0.2527   -0.4929    0.7038 H   0  0  0  0  0  0
    2.0517    0.5346   -1.0039 H   0  0  0  0  0  0
    1.9756    0.5640    0.7263 H   0  0  0  0  0  0
    2.0859   -1.7774    0.8846 H   0  0  0  0  0  0
    0.8075    2.3940   -1.4859 H   0  0  0  0  0  0
   -0.1079    4.6562   -1.1938 H   0  0  0  0  0  0
   -1.9381    5.0618    0.4210 H   0  0  0  0  0  0
   -1.9452    0.9140    1.4726 H   0  0  0  0  0  0
    5.7137   -5.2094    0.7416 H   0  0  0  0  0  0
    1.9583   -6.6061   -0.8225 H   0  0  0  0  0  0
    5.8233   -7.1898    1.7817 H   0  0  0  0  0  0
    3.3618  -11.0437   -0.8749 H   0  0  0  0  0  0
    3.4970  -11.4530    0.8655 H   0  0  0  0  0  0
    4.8803  -11.4848   -0.1608 H   0  0  0  0  0  0
   -2.0659   -1.4209   -0.3041 H   0  0  0  0  0  0
   -1.9001   -3.0947   -6.7770 H   0  0  0  0  0  0
    0.1134   -1.7162   -6.9681 H   0  0  0  0  0  0
   -3.6814   -4.0266   -5.6093 H   0  0  0  0  0  0
   -4.3180   -3.0031   -4.3242 H   0  0  0  0  0  0
   -3.3190   -4.4003   -3.9261 H   0  0  0  0  0  0
  1  2  1  0  0  0
  1 28  1  0  0  0
  1 30  2  0  0  0
  2  3  1  0  0  0
  2  8  1  0  0  0
  2 40  1  0  0  0
  3  4  1  0  0  0
  3 41  1  0  0  0
  3 42  1  0  0  0
  4  5  1  0  0  0
  4 43  1  0  0  0
  5  6  1  0  0  0
  5  7  2  0  0  0
  6 14  2  0  0  0
  6 18  1  0  0  0
  8  9  2  0  0  0
  8 13  1  0  0  0
  9 10  1  0  0  0
  9 44  1  0  0  0
 10 11  2  0  0  0
 10 45  1  0  0  0
 11 12  1  0  0  0
 11 46  1  0  0  0
 12 13  2  0  0  0
 12 27  1  0  0  0
 13 47  1  0  0  0
 14 15  1  0  0  0
 14 25  1  0  0  0
 15 16  2  0  0  0
 15 48  1  0  0  0
 16 17  1  0  0  0
 16 20  1  0  0  0
 17 18  2  0  0  0
 17 49  1  0  0  0
 18 19  1  0  0  0
 20 21  1  0  0  0
 20 24  1  0  0  0
 21 22  2  0  0  0
 21 50  1  0  0  0
 22 23  1  0  0  0
 23 24  2  0  0  0
 23 26  1  0  0  0
 26 51  1  0  0  0
 26 52  1  0  0  0
 26 53  1  0  0  0
 28 29  1  0  0  0
 28 54  1  0  0  0
 29 33  1  0  0  0
 29 31  2  0  0  0
 30 32  1  0  0  0
 32 33  2  0  0  0
 32 37  1  0  0  0
 33 34  1  0  0  0
 34 35  2  0  0  0
 34 38  1  0  0  0
 35 36  1  0  0  0
 35 55  1  0  0  0
 36 37  2  0  0  0
 36 56  1  0  0  0
 37 39  1  0  0  0
 38 57  1  0  0  0
 38 58  1  0  0  0
 38 59  1  0  0  0
M  END
> <chembl_id>
CHEMBL3627899

> <chembl_pref_name>
None

> <i_m_ct_stereo_status>
1

> <s_m_source_file>
sdf/actives_sanitized.sdf

> <i_m_source_file_index>
150

> <i_lp_mmshare_version>
49012

> <i_f3d_flags>
0

> <s_epik_input>
RmMxW2NIXVtjSF1jKFtDSDNdKWMoYzEyKWMoPU8pW25IXWMobjIpW0NASF0oYzNbY0hdW2NIXVtjSF1jKEYpW2NIXTMpW0NIMl1bTkhdQyg9TyljNGMoQ2wpW2NIXWMoW2NIXWM0Q2wpLW41W2NIXW5jKG41KVtDSDNd

> <s_epik_cmdline>
J2VwaWtfcHl0aG9uJywgJy1waHQnLCAnMC41JywgJy1waCcsICc3LjUnLCAnLW50JywgJy1tYScsICcyMDAnLCAnLWltYWUnLCAnPGluZmlsZS5tYWU+JywgJy1vbWFlJywgJzxvdXRmaWxlLm1hZT4n

> <r_lp_tautomer_probability>
0.883938

> <r_epik_Ionization_Penalty>
  0.0247

> <r_epik_Ionization_Penalty_Charging>
  0.0247

> <r_epik_Ionization_Penalty_Neutral>
  0.0001

> <r_epik_State_Penalty>
  0.0702

> <r_epik_Charging_Adjusted_Penalty>
0.0948840006290928

> <i_epik_Tot_Q>
0

> <i_epik_Tot_abs_Q>
0

> <s_lp_Force_Field>
OPLS3e

> <r_lp_Energy>
33.868083

> <b_lp_Chiralities_Consistent>
1

> <s_lp_Variant>
sdf/actives_sanitized.sdf:150-1

$$$$
sdf/actives_sanitized.sdf:151
                    3D
 Schrodinger Suite 2020-1.
 57 61  0  0  1  0            999 V2000
   -1.5871   -2.9920   -5.0887 C   0  0  0  0  0  0
   -2.8980   -2.7209   -4.6499 C   0  0  0  0  0  0
   -3.1392   -1.9913   -3.4778 C   0  0  0  0  0  0
   -0.4805   -2.5373   -4.3623 C   0  0  0  0  0  0
   -1.3358   -3.7870   -6.3638 C   0  0  0  0  0  0
   -4.1007   -3.2172   -5.4425 C   0  0  0  0  0  0
   -0.7006   -1.8070   -3.1885 C   0  0  0  0  0  0
   -2.0239   -1.5460   -2.7663 C   0  0  0  0  0  0
   -1.8613   -0.8246   -1.6070 N   0  0  0  0  0  0
   -0.5081   -0.6811   -1.3918 C   0  0  0  0  0  0
    0.2122   -1.2681   -2.3200 N   0  0  0  0  0  0
    0.0421    0.0583   -0.1704 C   0  0  1  0  0  0
    1.5949    0.0258   -0.0813 C   0  0  0  0  0  0
    2.1377    0.6052    1.1504 N   0  0  0  0  0  0
    2.5660    1.8728    1.2993 C   0  0  0  0  0  0
    2.9715    2.2637    2.6984 C   0  0  0  0  0  0
    2.5669    2.7064    0.3917 O   0  0  0  0  0  0
   -0.5139    1.4830   -0.0496 C   0  0  0  0  0  0
   -0.4777    2.3591   -1.1428 C   0  0  0  0  0  0
   -0.9481    3.6662   -1.0166 C   0  0  0  0  0  0
   -1.4533    4.1111    0.2048 C   0  0  0  0  0  0
   -1.4897    3.2482    1.2997 C   0  0  0  0  0  0
   -1.0238    1.9395    1.1726 C   0  0  0  0  0  0
    2.4584    3.4558    3.2282 C   0  0  0  0  0  0
    2.7981    3.8759    4.5123 C   0  0  0  0  0  0
    3.6755    3.1160    5.2913 C   0  0  0  0  0  0
    4.2144    1.9382    4.7623 C   0  0  0  0  0  0
    3.8787    1.5107    3.4757 C   0  0  0  0  0  0
    4.6447    0.0657    2.8972 Cl  0  0  0  0  0  0
    4.0193    3.5358    6.5946 N   0  0  0  0  0  0
    4.0407    4.8110    7.1166 C   0  0  0  0  0  0
    4.4126    4.8256    8.3720 N   0  0  0  0  0  0
    4.6560    3.5044    8.7327 N   0  0  0  0  0  0
    4.4181    2.7745    7.6719 C   0  0  0  0  0  0
   -1.9719    3.6812    2.4863 F   0  0  0  0  0  0
   -4.1437   -1.7824   -3.1392 H   0  0  0  0  0  0
    0.5255   -2.7444   -4.6974 H   0  0  0  0  0  0
   -0.2727   -3.9260   -6.5651 H   0  0  0  0  0  0
   -1.7779   -3.2785   -7.2210 H   0  0  0  0  0  0
   -1.7951   -4.7733   -6.2932 H   0  0  0  0  0  0
   -5.0485   -2.9488   -4.9737 H   0  0  0  0  0  0
   -4.0707   -4.3029   -5.5387 H   0  0  0  0  0  0
   -4.0906   -2.7974   -6.4487 H   0  0  0  0  0  0
   -2.5660   -0.4425   -0.9931 H   0  0  0  0  0  0
   -0.3178   -0.4899    0.7026 H   0  0  0  0  0  0
    1.9376   -1.0092   -0.1162 H   0  0  0  0  0  0
    2.0335    0.5053   -0.9597 H   0  0  0  0  0  0
    2.2193   -0.0214    1.9379 H   0  0  0  0  0  0
   -0.0750    2.0306   -2.0901 H   0  0  0  0  0  0
   -0.9148    4.3358   -1.8635 H   0  0  0  0  0  0
   -1.8125    5.1250    0.3030 H   0  0  0  0  0  0
   -1.0483    1.2850    2.0316 H   0  0  0  0  0  0
    1.7746    4.0627    2.6505 H   0  0  0  0  0  0
    2.3669    4.7904    4.8930 H   0  0  0  0  0  0
    4.9130    1.3512    5.3411 H   0  0  0  0  0  0
    3.7795    5.6654    6.5098 H   0  0  0  0  0  0
    4.4980    1.7002    7.5955 H   0  0  0  0  0  0
  1  2  2  0  0  0
  1  4  1  0  0  0
  1  5  1  0  0  0
  2  3  1  0  0  0
  2  6  1  0  0  0
  3  8  2  0  0  0
  3 36  1  0  0  0
  4  7  2  0  0  0
  4 37  1  0  0  0
  5 38  1  0  0  0
  5 39  1  0  0  0
  5 40  1  0  0  0
  6 41  1  0  0  0
  6 42  1  0  0  0
  6 43  1  0  0  0
  7  8  1  0  0  0
  7 11  1  0  0  0
  8  9  1  0  0  0
  9 10  1  0  0  0
  9 44  1  0  0  0
 10 11  2  0  0  0
 10 12  1  0  0  0
 12 13  1  0  0  0
 12 18  1  0  0  0
 12 45  1  0  0  0
 13 14  1  0  0  0
 13 46  1  0  0  0
 13 47  1  0  0  0
 14 15  1  0  0  0
 14 48  1  0  0  0
 15 16  1  0  0  0
 15 17  2  0  0  0
 16 24  2  0  0  0
 16 28  1  0  0  0
 18 19  2  0  0  0
 18 23  1  0  0  0
 19 20  1  0  0  0
 19 49  1  0  0  0
 20 21  2  0  0  0
 20 50  1  0  0  0
 21 22  1  0  0  0
 21 51  1  0  0  0
 22 23  2  0  0  0
 22 35  1  0  0  0
 23 52  1  0  0  0
 24 25  1  0  0  0
 24 53  1  0  0  0
 25 26  2  0  0  0
 25 54  1  0  0  0
 26 27  1  0  0  0
 26 30  1  0  0  0
 27 28  2  0  0  0
 27 55  1  0  0  0
 28 29  1  0  0  0
 30 31  1  0  0  0
 30 34  1  0  0  0
 31 32  2  0  0  0
 31 56  1  0  0  0
 32 33  1  0  0  0
 33 34  2  0  0  0
 34 57  1  0  0  0
M  END
> <chembl_id>
CHEMBL3627871

> <chembl_pref_name>
None

> <i_m_ct_stereo_status>
1

> <s_m_source_file>
sdf/actives_sanitized.sdf

> <i_m_source_file_index>
151

> <i_lp_mmshare_version>
49012

> <i_f3d_flags>
0

> <s_epik_input>
W2NIXTFjKFtDSDNdKWMoW0NIM10pW2NIXWMoYzEyKVtuSF1jKG4yKVtDQEhdKGMzW2NIXVtjSF1bY0hdYyhGKVtjSF0zKVtDSDJdW05IXUMoPU8pYzRbY0hdW2NIXWMoW2NIXWM0Q2wpLW41W2NIXW5uW2NIXTU=

> <s_epik_cmdline>
J2VwaWtfcHl0aG9uJywgJy1waHQnLCAnMC41JywgJy1waCcsICc3LjUnLCAnLW50JywgJy1tYScsICcyMDAnLCAnLWltYWUnLCAnPGluZmlsZS5tYWU+JywgJy1vbWFlJywgJzxvdXRmaWxlLm1hZT4n

> <r_lp_tautomer_probability>
1

> <r_epik_Ionization_Penalty>
  0.0167

> <r_epik_Ionization_Penalty_Charging>
  0.0000

> <r_epik_Ionization_Penalty_Neutral>
  0.0167

> <r_epik_State_Penalty>
  0.0132

> <r_epik_Charging_Adjusted_Penalty>
0.013171618342122

> <i_epik_Tot_Q>
0

> <i_epik_Tot_abs_Q>
0

> <s_lp_Force_Field>
OPLS3e

> <r_lp_Energy>
37.137312

> <b_lp_Chiralities_Consistent>
1

> <s_lp_Variant>
sdf/actives_sanitized.sdf:151-1

$$$$
sdf/actives_sanitized.sdf:152
                    3D
 Schrodinger Suite 2020-1.
 64 68  0  0  1  0            999 V2000
   -5.0458    3.1226   -0.9083 C   0  0  0  0  0  0
   -3.8074    2.1992   -0.9213 C   0  0  2  0  0  0
   -2.8661    2.5474    0.2848 C   0  0  0  0  0  0
   -1.8511    1.4734    0.7660 C   0  0  0  0  0  0
   -0.5440    1.3287   -0.0608 C   0  0  0  0  0  0
    0.0417   -0.1231   -0.1409 C   0  0  2  0  0  0
    1.5246   -0.1215   -0.0795 N   0  0  0  0  0  0
    2.2735    0.7637   -1.0184 C   0  0  0  0  0  0
    3.7063    0.2450   -1.3132 C   0  0  0  0  0  0
    4.3732   -0.1334   -0.0005 C   0  0  0  0  0  0
    3.6013   -0.6999    0.9498 C   0  0  0  0  0  0
    2.1690   -0.8899    0.8577 C   0  0  0  0  0  0
    1.6072   -1.7127    1.5825 O   0  0  0  0  0  0
    5.8538   -0.1471    0.1288 C   0  0  0  0  0  0
    6.4713    0.3646    1.2847 C   0  0  0  0  0  0
    5.7312    0.8834    2.2933 F   0  0  0  0  0  0
    7.8601    0.3660    1.4093 C   0  0  0  0  0  0
    8.6557   -0.1370    0.3842 C   0  0  0  0  0  0
    8.0638   -0.6458   -0.7696 C   0  0  0  0  0  0
    9.0663   -1.2668   -2.0328 Cl  0  0  0  0  0  0
    6.6711   -0.6530   -0.8989 C   0  0  0  0  0  0
    6.1209   -1.1719   -2.0228 F   0  0  0  0  0  0
   -0.5330   -0.9152   -1.3377 C   0  0  0  0  0  0
   -1.8849   -0.7964   -1.6496 C   0  0  0  0  0  0
   -2.3972   -1.3324   -2.8257 C   0  0  0  0  0  0
   -1.5472   -2.1086   -3.6211 C   0  0  0  0  0  0
   -0.2137   -2.2584   -3.2244 C   0  0  0  0  0  0
    0.3027   -1.6619   -2.1157 N   0  0  0  0  0  0
   -3.8037   -1.0124   -3.1850 C   0  0  0  0  0  0
   -4.7291   -2.0488   -3.3523 C   0  0  0  0  0  0
   -6.0716   -1.7736   -3.6105 C   0  0  0  0  0  0
   -6.5070   -0.4534   -3.7133 C   0  0  0  0  0  0
   -7.8247   -0.1847   -3.9711 O   0  0  0  0  0  0
   -5.5981    0.5933   -3.5677 C   0  0  0  0  0  0
   -4.2514    0.3243   -3.3007 C   0  0  0  0  0  0
   -3.3433    1.3978   -3.2918 N   0  0  0  0  0  0
   -3.1144    2.2966   -2.3071 C   0  0  0  0  0  0
   -2.3356    3.2255   -2.5172 O   0  0  0  0  0  0
   -5.7453    2.8792   -1.7084 H   0  0  0  0  0  0
   -4.7695    4.1719   -1.0261 H   0  0  0  0  0  0
   -5.5967    3.0309    0.0284 H   0  0  0  0  0  0
   -4.1829    1.1873   -0.7710 H   0  0  0  0  0  0
   -2.3481    3.4924    0.1123 H   0  0  0  0  0  0
   -3.5053    2.7469    1.1466 H   0  0  0  0  0  0
   -1.5531    1.7299    1.7839 H   0  0  0  0  0  0
   -2.3649    0.5215    0.8919 H   0  0  0  0  0  0
   -0.6790    1.7111   -1.0713 H   0  0  0  0  0  0
    0.1872    2.0072    0.3820 H   0  0  0  0  0  0
   -0.3470   -0.6495    0.7322 H   0  0  0  0  0  0
    1.6888    1.0118   -1.9050 H   0  0  0  0  0  0
    2.4035    1.7082   -0.4881 H   0  0  0  0  0  0
    3.6159   -0.6402   -1.9446 H   0  0  0  0  0  0
    4.2845    0.9902   -1.8605 H   0  0  0  0  0  0
    4.0716   -1.0771    1.8471 H   0  0  0  0  0  0
    8.3219    0.7640    2.3010 H   0  0  0  0  0  0
    9.7312   -0.1298    0.4868 H   0  0  0  0  0  0
   -2.5483   -0.2343   -1.0252 H   0  0  0  0  0  0
   -1.9021   -2.5620   -4.5351 H   0  0  0  0  0  0
    0.4735   -2.8427   -3.8181 H   0  0  0  0  0  0
   -4.4119   -3.0777   -3.2596 H   0  0  0  0  0  0
   -6.7709   -2.5890   -3.7259 H   0  0  0  0  0  0
   -8.3576   -0.9780   -4.0601 H   0  0  0  0  0  0
   -5.9370    1.6127   -3.6863 H   0  0  0  0  0  0
   -2.7804    1.4874   -4.1251 H   0  0  0  0  0  0
  1  2  1  0  0  0
  1 39  1  0  0  0
  1 40  1  0  0  0
  1 41  1  0  0  0
  2  3  1  0  0  0
  2 37  1  0  0  0
  2 42  1  0  0  0
  3  4  1  0  0  0
  3 43  1  0  0  0
  3 44  1  0  0  0
  4  5  1  0  0  0
  4 45  1  0  0  0
  4 46  1  0  0  0
  5  6  1  0  0  0
  5 47  1  0  0  0
  5 48  1  0  0  0
  6  7  1  0  0  0
  6 23  1  0  0  0
  6 49  1  0  0  0
  7  8  1  0  0  0
  7 12  1  0  0  0
  8  9  1  0  0  0
  8 50  1  0  0  0
  8 51  1  0  0  0
  9 10  1  0  0  0
  9 52  1  0  0  0
  9 53  1  0  0  0
 10 11  2  0  0  0
 10 14  1  0  0  0
 11 12  1  0  0  0
 11 54  1  0  0  0
 12 13  2  0  0  0
 14 15  2  0  0  0
 14 21  1  0  0  0
 15 16  1  0  0  0
 15 17  1  0  0  0
 17 18  2  0  0  0
 17 55  1  0  0  0
 18 19  1  0  0  0
 18 56  1  0  0  0
 19 20  1  0  0  0
 19 21  2  0  0  0
 21 22  1  0  0  0
 23 24  1  0  0  0
 23 28  2  0  0  0
 24 25  2  0  0  0
 24 57  1  0  0  0
 25 26  1  0  0  0
 25 29  1  0  0  0
 26 27  2  0  0  0
 26 58  1  0  0  0
 27 28  1  0  0  0
 27 59  1  0  0  0
 29 30  2  0  0  0
 29 35  1  0  0  0
 30 31  1  0  0  0
 30 60  1  0  0  0
 31 32  2  0  0  0
 31 61  1  0  0  0
 32 33  1  0  0  0
 32 34  1  0  0  0
 33 62  1  0  0  0
 34 35  2  0  0  0
 34 63  1  0  0  0
 35 36  1  0  0  0
 36 37  1  0  0  0
 36 64  1  0  0  0
 37 38  2  0  0  0
M  END
> <chembl_id>
CHEMBL4108998

> <chembl_pref_name>
None

> <i_m_ct_stereo_status>
1

> <s_m_source_file>
sdf/actives_sanitized.sdf

> <i_m_source_file_index>
152

> <i_lp_mmshare_version>
49012

> <i_f3d_flags>
0

> <s_epik_input>
bjFbY0hdW2NIXWMoW2NIXWMxMiljM2MoW2NIXWMoW09IXSlbY0hdW2NIXTMpW05IXUMoPU8pW0NASF0oW0NIM10pW0NIMl1bQ0gyXVtDSDJdW0NAQEhdMk40W0NIMl1bQ0gyXUMoPVtDSF1DND1PKWM1YyhGKVtjSF1bY0hdYyhDbCljNUY=

> <s_epik_cmdline>
J2VwaWtfcHl0aG9uJywgJy1waHQnLCAnMC41JywgJy1waCcsICc3LjUnLCAnLW50JywgJy1tYScsICcyMDAnLCAnLWltYWUnLCAnPGluZmlsZS5tYWU+JywgJy1vbWFlJywgJzxvdXRmaWxlLm1hZT4n

> <r_lp_tautomer_probability>
1

> <r_epik_Ionization_Penalty>
  0.0088

> <r_epik_Ionization_Penalty_Charging>
  0.0000

> <r_epik_Ionization_Penalty_Neutral>
  0.0088

> <r_epik_State_Penalty>
 -0.0000

> <r_epik_Charging_Adjusted_Penalty>
0

> <i_epik_Tot_Q>
0

> <i_epik_Tot_abs_Q>
0

> <s_lp_Force_Field>
OPLS3e

> <r_lp_Energy>
93.477019

> <b_lp_Chiralities_Consistent>
1

> <s_lp_Variant>
sdf/actives_sanitized.sdf:152-1

$$$$
sdf/actives_sanitized.sdf:153
                    3D
 Schrodinger Suite 2020-1.
 76 80  0  0  1  0            999 V2000
  -10.8549    1.1133   -4.7683 C   0  0  0  0  0  0
   -9.8001    0.1701   -4.6355 O   0  0  0  0  0  0
   -8.5655    0.5624   -4.2612 C   0  0  0  0  0  0
   -8.2565    1.7264   -3.9960 O   0  0  0  0  0  0
   -7.7423   -0.5593   -4.2231 N   0  0  0  0  0  0
   -6.3728   -0.6480   -3.9214 C   0  0  0  0  0  0
   -5.8475   -1.9333   -3.7751 C   0  0  0  0  0  0
   -4.4991   -2.1190   -3.4745 C   0  0  0  0  0  0
   -3.6426   -1.0261   -3.3078 C   0  0  0  0  0  0
   -4.1669    0.2764   -3.4774 C   0  0  0  0  0  0
   -3.3304    1.4077   -3.4766 N   0  0  0  0  0  0
   -3.2141    2.3636   -2.5259 C   0  0  0  0  0  0
   -2.5137    3.3493   -2.7527 O   0  0  0  0  0  0
   -3.9340    2.2575   -1.1540 C   0  0  2  0  0  0
   -5.2321    3.0939   -1.1954 C   0  0  0  0  0  0
   -3.0471    2.6996    0.0636 C   0  0  0  0  0  0
   -1.9542    1.7225    0.5843 C   0  0  0  0  0  0
   -0.6271    1.6691   -0.2224 C   0  0  0  0  0  0
    0.0936    0.2740   -0.2638 C   0  0  2  0  0  0
    1.5742    0.3781   -0.1814 N   0  0  0  0  0  0
    2.2550   -0.5385    0.7751 C   0  0  0  0  0  0
    3.6621   -0.0280    1.1841 C   0  0  0  0  0  0
    4.4176    0.3761   -0.0689 C   0  0  0  0  0  0
    3.7280    0.9062   -1.0964 C   0  0  0  0  0  0
    2.2897    1.0604   -1.1404 C   0  0  0  0  0  0
    1.7806    1.7983   -1.9850 O   0  0  0  0  0  0
    5.8994    0.4194   -0.0750 C   0  0  0  0  0  0
    6.5870   -0.5420   -0.8344 C   0  0  0  0  0  0
    5.8960   -1.4651   -1.5478 F   0  0  0  0  0  0
    7.9835   -0.5613   -0.8638 C   0  0  0  0  0  0
    8.8259   -1.7414   -1.8036 Cl  0  0  0  0  0  0
    8.7081    0.3747   -0.1309 C   0  0  0  0  0  0
    8.0423    1.3300    0.6320 C   0  0  0  0  0  0
    6.6444    1.3622    0.6694 C   0  0  0  0  0  0
    6.0108    2.4009    1.4792 C   0  0  0  0  0  0
    5.5086    3.2229    2.1205 N   0  0  0  0  0  0
   -0.4290   -0.6442   -1.3960 C   0  0  0  0  0  0
   -1.7701   -0.5984   -1.7590 C   0  0  0  0  0  0
   -2.2313   -1.2541   -2.8936 C   0  0  0  0  0  0
   -1.3325   -2.0692   -3.5910 C   0  0  0  0  0  0
   -0.0049   -2.1474   -3.1513 C   0  0  0  0  0  0
    0.8766   -2.9516   -3.8512 O   0  0  0  0  0  0
    2.2423   -3.0174   -3.4416 C   0  0  0  0  0  0
    0.4475   -1.4376   -2.0731 N   0  0  0  0  0  0
   -5.5188    0.4568   -3.7877 C   0  0  0  0  0  0
  -11.7749    0.6019   -5.0506 H   0  0  0  0  0  0
  -10.6261    1.8508   -5.5391 H   0  0  0  0  0  0
  -11.0338    1.6386   -3.8287 H   0  0  0  0  0  0
   -8.1908   -1.4382   -4.4362 H   0  0  0  0  0  0
   -6.4835   -2.8004   -3.8846 H   0  0  0  0  0  0
   -4.1239   -3.1242   -3.3465 H   0  0  0  0  0  0
   -2.7398    1.5043   -4.2897 H   0  0  0  0  0  0
   -4.2452    1.2271   -0.9828 H   0  0  0  0  0  0
   -5.8927    2.7837   -2.0056 H   0  0  0  0  0  0
   -5.0238    4.1562   -1.3337 H   0  0  0  0  0  0
   -5.7998    2.9879   -0.2704 H   0  0  0  0  0  0
   -2.6051    3.6810   -0.1179 H   0  0  0  0  0  0
   -3.7180    2.8613    0.9091 H   0  0  0  0  0  0
   -1.6940    2.0254    1.5998 H   0  0  0  0  0  0
   -2.3885    0.7337    0.7247 H   0  0  0  0  0  0
   -0.7861    2.0094   -1.2437 H   0  0  0  0  0  0
    0.0395    2.4196    0.2061 H   0  0  0  0  0  0
   -0.2170   -0.2358    0.6487 H   0  0  0  0  0  0
    1.6145   -0.8550    1.5986 H   0  0  0  0  0  0
    2.4515   -1.4463    0.2015 H   0  0  0  0  0  0
    3.5346    0.8401    1.8319 H   0  0  0  0  0  0
    4.2069   -0.7830    1.7520 H   0  0  0  0  0  0
    4.2768    1.2716   -1.9533 H   0  0  0  0  0  0
    9.7881    0.3625   -0.1512 H   0  0  0  0  0  0
    8.6280    2.0464    1.1920 H   0  0  0  0  0  0
   -2.4689   -0.0059   -1.2082 H   0  0  0  0  0  0
   -1.6496   -2.6135   -4.4686 H   0  0  0  0  0  0
    2.7884   -3.6877   -4.1051 H   0  0  0  0  0  0
    2.3354   -3.4055   -2.4262 H   0  0  0  0  0  0
    2.7214   -2.0380   -3.4902 H   0  0  0  0  0  0
   -5.8754    1.4614   -3.9506 H   0  0  0  0  0  0
  1  2  1  0  0  0
  1 46  1  0  0  0
  1 47  1  0  0  0
  1 48  1  0  0  0
  2  3  1  0  0  0
  3  4  2  0  0  0
  3  5  1  0  0  0
  5  6  1  0  0  0
  5 49  1  0  0  0
  6  7  2  0  0  0
  6 45  1  0  0  0
  7  8  1  0  0  0
  7 50  1  0  0  0
  8  9  2  0  0  0
  8 51  1  0  0  0
  9 10  1  0  0  0
  9 39  1  0  0  0
 10 11  1  0  0  0
 10 45  2  0  0  0
 11 12  1  0  0  0
 11 52  1  0  0  0
 12 13  2  0  0  0
 12 14  1  0  0  0
 14 15  1  0  0  0
 14 16  1  0  0  0
 14 53  1  0  0  0
 15 54  1  0  0  0
 15 55  1  0  0  0
 15 56  1  0  0  0
 16 17  1  0  0  0
 16 57  1  0  0  0
 16 58  1  0  0  0
 17 18  1  0  0  0
 17 59  1  0  0  0
 17 60  1  0  0  0
 18 19  1  0  0  0
 18 61  1  0  0  0
 18 62  1  0  0  0
 19 20  1  0  0  0
 19 37  1  0  0  0
 19 63  1  0  0  0
 20 21  1  0  0  0
 20 25  1  0  0  0
 21 22  1  0  0  0
 21 64  1  0  0  0
 21 65  1  0  0  0
 22 23  1  0  0  0
 22 66  1  0  0  0
 22 67  1  0  0  0
 23 24  2  0  0  0
 23 27  1  0  0  0
 24 25  1  0  0  0
 24 68  1  0  0  0
 25 26  2  0  0  0
 27 28  2  0  0  0
 27 34  1  0  0  0
 28 29  1  0  0  0
 28 30  1  0  0  0
 30 31  1  0  0  0
 30 32  2  0  0  0
 32 33  1  0  0  0
 32 69  1  0  0  0
 33 34  2  0  0  0
 33 70  1  0  0  0
 34 35  1  0  0  0
 35 36  3  0  0  0
 37 38  1  0  0  0
 37 44  2  0  0  0
 38 39  2  0  0  0
 38 71  1  0  0  0
 39 40  1  0  0  0
 40 41  2  0  0  0
 40 72  1  0  0  0
 41 42  1  0  0  0
 41 44  1  0  0  0
 42 43  1  0  0  0
 43 73  1  0  0  0
 43 74  1  0  0  0
 43 75  1  0  0  0
 45 76  1  0  0  0
M  END
> <chembl_id>
CHEMBL4111429

> <chembl_pref_name>
None

> <i_m_ct_stereo_status>
1

> <s_m_source_file>
sdf/actives_sanitized.sdf

> <i_m_source_file_index>
153

> <i_lp_mmshare_version>
49012

> <i_f3d_flags>
0

> <s_epik_input>
W0NIM11PQyg9TylbTkhdYyhbY0hdW2NIXTEpW2NIXWMoYzEyKVtOSF1DKD1PKVtDQEhdKFtDSDNdKVtDSDJdW0NIMl1bQ0gyXVtDQEBIXShjM1tjSF1jMltjSF1jKG4zKU9bQ0gzXSlONFtDSDJdW0NIMl1DKD1bQ0hdQzQ9TyljNWMoRiljKENsKVtjSF1bY0hdYzVDI04=

> <s_epik_cmdline>
J2VwaWtfcHl0aG9uJywgJy1waHQnLCAnMC41JywgJy1waCcsICc3LjUnLCAnLW50JywgJy1tYScsICcyMDAnLCAnLWltYWUnLCAnPGluZmlsZS5tYWU+JywgJy1vbWFlJywgJzxvdXRmaWxlLm1hZT4n

> <r_lp_tautomer_probability>
1

> <r_epik_Ionization_Penalty>
  0.0001

> <r_epik_Ionization_Penalty_Charging>
  0.0000

> <r_epik_Ionization_Penalty_Neutral>
  0.0001

> <r_epik_State_Penalty>
 -0.0000

> <r_epik_Charging_Adjusted_Penalty>
0

> <i_epik_Tot_Q>
0

> <i_epik_Tot_abs_Q>
0

> <s_epik_Chemistry_Notes>
This compound has an ester and may undergo hydrolysis at high or low pH.

> <s_lp_Force_Field>
OPLS3e

> <r_lp_Energy>
98.332882

> <b_lp_Chiralities_Consistent>
1

> <s_lp_Variant>
sdf/actives_sanitized.sdf:153-1

$$$$
sdf/actives_sanitized.sdf:154
                    3D
 Schrodinger Suite 2020-1.
 72 76  0  0  1  0            999 V2000
  -10.8093    0.4855   -5.3883 C   0  0  0  0  0  0
   -9.4069    0.7102   -5.4353 O   0  0  0  0  0  0
   -8.5529   -0.1090   -4.7887 C   0  0  0  0  0  0
   -8.8967   -1.0943   -4.1320 O   0  0  0  0  0  0
   -7.2594    0.3642   -4.9869 N   0  0  0  0  0  0
   -6.0401   -0.1484   -4.5134 C   0  0  0  0  0  0
   -5.8910   -1.3969   -3.8905 C   0  0  0  0  0  0
   -4.6361   -1.8180   -3.4521 C   0  0  0  0  0  0
   -3.5064   -1.0121   -3.6232 C   0  0  0  0  0  0
   -3.6553    0.2375   -4.2577 C   0  0  0  0  0  0
   -2.5467    1.0412   -4.5618 N   0  0  0  0  0  0
   -2.0991    2.1199   -3.8834 C   0  0  0  0  0  0
   -1.1953    2.7998   -4.3684 O   0  0  0  0  0  0
   -2.6852    2.5241   -2.5027 C   0  0  2  0  0  0
   -3.7783    3.5969   -2.6901 C   0  0  0  0  0  0
   -1.5981    3.0289   -1.4961 C   0  0  0  0  0  0
   -0.3920    2.0918   -1.2074 C   0  0  0  0  0  0
   -0.5700    1.1090   -0.0187 C   0  0  0  0  0  0
    0.0795   -0.3054   -0.1924 C   0  0  2  0  0  0
    1.5622   -0.2409   -0.1203 N   0  0  0  0  0  0
    2.3228    0.3449   -1.2637 C   0  0  0  0  0  0
    3.7859   -0.1662   -1.3273 C   0  0  0  0  0  0
    4.3984   -0.0632    0.0572 C   0  0  0  0  0  0
    3.6081   -0.2663    1.1282 C   0  0  0  0  0  0
    2.1846   -0.5239    1.0726 C   0  0  0  0  0  0
    1.6162   -1.0107    2.0514 O   0  0  0  0  0  0
    5.8700    0.0098    0.2252 C   0  0  0  0  0  0
    6.4290    1.2201    0.6687 C   0  0  0  0  0  0
    5.6263    2.2762    0.9490 F   0  0  0  0  0  0
    7.8110    1.3527    0.8241 C   0  0  0  0  0  0
    8.4947    2.8417    1.3736 Cl  0  0  0  0  0  0
    8.6501    0.2807    0.5330 C   0  0  0  0  0  0
    8.1133   -0.9236    0.0863 C   0  0  0  0  0  0
    6.7313   -1.0708   -0.0727 C   0  0  0  0  0  0
    6.2355   -2.3663   -0.5330 C   0  0  0  0  0  0
    5.8419   -3.3915   -0.8979 N   0  0  0  0  0  0
   -0.4721   -1.1055   -1.3940 C   0  0  0  0  0  0
    0.2903   -2.0625   -2.0840 C   0  0  0  0  0  0
   -0.2479   -2.6678   -3.2246 C   0  0  0  0  0  0
   -1.4751   -2.3581   -3.7208 N   0  0  0  0  0  0
   -2.2108   -1.4391   -3.0434 C   0  0  0  0  0  0
   -1.7599   -0.8438   -1.8695 C   0  0  0  0  0  0
   -4.9128    0.6533   -4.7061 C   0  0  0  0  0  0
  -11.3255    1.2472   -5.9726 H   0  0  0  0  0  0
  -11.1795    0.5354   -4.3633 H   0  0  0  0  0  0
  -11.0646   -0.4911   -5.8023 H   0  0  0  0  0  0
   -7.1839    1.2190   -5.5186 H   0  0  0  0  0  0
   -6.7263   -2.0604   -3.7340 H   0  0  0  0  0  0
   -4.5462   -2.7747   -2.9575 H   0  0  0  0  0  0
   -2.0573    0.7981   -5.4107 H   0  0  0  0  0  0
   -3.1804    1.6659   -2.0565 H   0  0  0  0  0  0
   -4.5830    3.2461   -3.3377 H   0  0  0  0  0  0
   -3.3782    4.5104   -3.1332 H   0  0  0  0  0  0
   -4.2325    3.8656   -1.7357 H   0  0  0  0  0  0
   -1.1963    3.9694   -1.8782 H   0  0  0  0  0  0
   -2.0720    3.2949   -0.5498 H   0  0  0  0  0  0
   -0.1220    1.5522   -2.1132 H   0  0  0  0  0  0
    0.4790    2.7126   -0.9940 H   0  0  0  0  0  0
   -0.1673    1.5744    0.8824 H   0  0  0  0  0  0
   -1.6272    0.9936    0.2184 H   0  0  0  0  0  0
   -0.2832   -0.8924    0.6526 H   0  0  0  0  0  0
    1.7788    0.3056   -2.2071 H   0  0  0  0  0  0
    2.4161    1.4066   -1.0304 H   0  0  0  0  0  0
    3.7687   -1.2094   -1.6450 H   0  0  0  0  0  0
    4.3668    0.3908   -2.0631 H   0  0  0  0  0  0
    4.0608   -0.2774    2.1102 H   0  0  0  0  0  0
    9.7192    0.3796    0.6516 H   0  0  0  0  0  0
    8.7865   -1.7414   -0.1328 H   0  0  0  0  0  0
    1.2857   -2.3266   -1.7582 H   0  0  0  0  0  0
    0.3211   -3.4023   -3.7755 H   0  0  0  0  0  0
   -2.4120   -0.1567   -1.3616 H   0  0  0  0  0  0
   -5.0098    1.6047   -5.2117 H   0  0  0  0  0  0
  1  2  1  0  0  0
  1 44  1  0  0  0
  1 45  1  0  0  0
  1 46  1  0  0  0
  2  3  1  0  0  0
  3  4  2  0  0  0
  3  5  1  0  0  0
  5  6  1  0  0  0
  5 47  1  0  0  0
  6  7  2  0  0  0
  6 43  1  0  0  0
  7  8  1  0  0  0
  7 48  1  0  0  0
  8  9  2  0  0  0
  8 49  1  0  0  0
  9 10  1  0  0  0
  9 41  1  0  0  0
 10 11  1  0  0  0
 10 43  2  0  0  0
 11 12  1  0  0  0
 11 50  1  0  0  0
 12 13  2  0  0  0
 12 14  1  0  0  0
 14 15  1  0  0  0
 14 16  1  0  0  0
 14 51  1  0  0  0
 15 52  1  0  0  0
 15 53  1  0  0  0
 15 54  1  0  0  0
 16 17  1  0  0  0
 16 55  1  0  0  0
 16 56  1  0  0  0
 17 18  1  0  0  0
 17 57  1  0  0  0
 17 58  1  0  0  0
 18 19  1  0  0  0
 18 59  1  0  0  0
 18 60  1  0  0  0
 19 20  1  0  0  0
 19 37  1  0  0  0
 19 61  1  0  0  0
 20 21  1  0  0  0
 20 25  1  0  0  0
 21 22  1  0  0  0
 21 62  1  0  0  0
 21 63  1  0  0  0
 22 23  1  0  0  0
 22 64  1  0  0  0
 22 65  1  0  0  0
 23 24  2  0  0  0
 23 27  1  0  0  0
 24 25  1  0  0  0
 24 66  1  0  0  0
 25 26  2  0  0  0
 27 28  2  0  0  0
 27 34  1  0  0  0
 28 29  1  0  0  0
 28 30  1  0  0  0
 30 31  1  0  0  0
 30 32  2  0  0  0
 32 33  1  0  0  0
 32 67  1  0  0  0
 33 34  2  0  0  0
 33 68  1  0  0  0
 34 35  1  0  0  0
 35 36  3  0  0  0
 37 38  1  0  0  0
 37 42  2  0  0  0
 38 39  2  0  0  0
 38 69  1  0  0  0
 39 40  1  0  0  0
 39 70  1  0  0  0
 40 41  2  0  0  0
 41 42  1  0  0  0
 42 71  1  0  0  0
 43 72  1  0  0  0
M  END
> <chembl_id>
CHEMBL4110901

> <chembl_pref_name>
None

> <i_m_ct_stereo_status>
1

> <s_m_source_file>
sdf/actives_sanitized.sdf

> <i_m_source_file_index>
154

> <i_lp_mmshare_version>
49012

> <i_f3d_flags>
0

> <s_epik_input>
W0NIM11PQyg9TylbTkhdYyhbY0hdW2NIXTEpW2NIXWMoYzEyKVtOSF1DKD1PKVtDQEhdKFtDSDNdKVtDSDJdW0NIMl1bQ0gyXVtDQEBIXShjM1tjSF1bY0hdbmMyW2NIXTMpTjRbQ0gyXVtDSDJdQyg9W0NIXUM0PU8pYzVjKEYpYyhDbClbY0hdW2NIXWM1QyNO

> <s_epik_cmdline>
J2VwaWtfcHl0aG9uJywgJy1waHQnLCAnMC41JywgJy1waCcsICc3LjUnLCAnLW50JywgJy1tYScsICcyMDAnLCAnLWltYWUnLCAnPGluZmlsZS5tYWU+JywgJy1vbWFlJywgJzxvdXRmaWxlLm1hZT4n

> <r_lp_tautomer_probability>
1

> <r_epik_Ionization_Penalty>
  0.0020

> <r_epik_Ionization_Penalty_Charging>
  0.0000

> <r_epik_Ionization_Penalty_Neutral>
  0.0020

> <r_epik_State_Penalty>
 -0.0000

> <r_epik_Charging_Adjusted_Penalty>
0

> <i_epik_Tot_Q>
0

> <i_epik_Tot_abs_Q>
0

> <s_epik_Chemistry_Notes>
This compound has an ester and may undergo hydrolysis at high or low pH.

> <s_lp_Force_Field>
OPLS3e

> <r_lp_Energy>
99.139269

> <b_lp_Chiralities_Consistent>
1

> <s_lp_Variant>
sdf/actives_sanitized.sdf:154-1

$$$$
sdf/actives_sanitized.sdf:155
                    3D
 Schrodinger Suite 2020-1.
 63 67  0  0  1  0            999 V2000
   -5.2444    1.7691   -0.9198 C   0  0  0  0  0  0
   -4.1327    0.9466   -1.6028 C   0  0  2  0  0  0
   -2.7440    1.6415   -1.4862 C   0  0  0  0  0  0
   -2.0963    1.5836   -0.0769 C   0  0  0  0  0  0
   -0.5463    1.4832   -0.0786 C   0  0  0  0  0  0
    0.0461    0.0395   -0.1795 C   0  0  2  0  0  0
    1.5277    0.0006   -0.0909 N   0  0  0  0  0  0
    2.3357    1.0433   -0.7925 C   0  0  0  0  0  0
    3.7620    0.5600   -1.1711 C   0  0  0  0  0  0
    4.3729   -0.1597    0.0181 C   0  0  0  0  0  0
    3.5563   -0.9162    0.7777 C   0  0  0  0  0  0
    2.1236   -1.0216    0.6065 C   0  0  0  0  0  0
    1.5168   -1.9887    1.0706 O   0  0  0  0  0  0
    5.8442   -0.2783    0.1654 C   0  0  0  0  0  0
    6.4541   -0.0205    1.4053 C   0  0  0  0  0  0
    5.7124    0.3498    2.4761 F   0  0  0  0  0  0
    7.8364   -0.1277    1.5533 C   0  0  0  0  0  0
    8.6301   -0.4916    0.4692 C   0  0  0  0  0  0
    8.0435   -0.7489   -0.7684 C   0  0  0  0  0  0
    9.0434   -1.2034   -2.1026 Cl  0  0  0  0  0  0
    6.6575   -0.6424   -0.9224 C   0  0  0  0  0  0
    6.1074   -0.9123   -2.1306 F   0  0  0  0  0  0
   -0.5136   -0.7346   -1.3769 C   0  0  0  0  0  0
   -1.7132   -1.4353   -1.2370 C   0  0  0  0  0  0
   -2.3639   -1.9076   -2.3795 C   0  0  0  0  0  0
   -1.7201   -1.7819   -3.6165 C   0  0  0  0  0  0
   -0.4727   -1.1560   -3.6662 C   0  0  0  0  0  0
    0.1254   -0.6167   -2.5735 N   0  0  0  0  0  0
   -3.7440   -2.4404   -2.2634 C   0  0  0  0  0  0
   -3.9529   -3.6295   -1.5533 C   0  0  0  0  0  0
   -5.2331   -4.1599   -1.4023 C   0  0  0  0  0  0
   -5.4838   -5.7823   -0.4393 Br  0  0  0  0  0  0
   -6.3285   -3.5038   -1.9580 C   0  0  0  0  0  0
   -6.1442   -2.3146   -2.6593 C   0  0  0  0  0  0
   -4.8650   -1.7681   -2.8027 C   0  0  0  0  0  0
   -4.7689   -0.5779   -3.5414 N   0  0  0  0  0  0
   -4.4840    0.6644   -3.0881 C   0  0  0  0  0  0
   -4.5031    1.6087   -3.8769 O   0  0  0  0  0  0
   -6.2098    1.2646   -0.9828 H   0  0  0  0  0  0
   -5.3584    2.7539   -1.3759 H   0  0  0  0  0  0
   -5.0297    1.9195    0.1386 H   0  0  0  0  0  0
   -4.0814    0.0003   -1.0690 H   0  0  0  0  0  0
   -2.0614    1.1989   -2.2106 H   0  0  0  0  0  0
   -2.8187    2.6825   -1.8057 H   0  0  0  0  0  0
   -2.3940    2.4812    0.4669 H   0  0  0  0  0  0
   -2.5036    0.7572    0.5067 H   0  0  0  0  0  0
   -0.1543    2.1282   -0.8653 H   0  0  0  0  0  0
   -0.1878    1.9176    0.8560 H   0  0  0  0  0  0
   -0.3382   -0.4716    0.7058 H   0  0  0  0  0  0
    1.7939    1.4952   -1.6232 H   0  0  0  0  0  0
    2.4623    1.8482   -0.0671 H   0  0  0  0  0  0
    3.6647   -0.1365   -2.0050 H   0  0  0  0  0  0
    4.3818    1.3936   -1.5030 H   0  0  0  0  0  0
    3.9880   -1.5255    1.5596 H   0  0  0  0  0  0
    8.2944    0.0746    2.5103 H   0  0  0  0  0  0
    9.7002   -0.5733    0.5917 H   0  0  0  0  0  0
   -2.1986   -1.4958   -0.2734 H   0  0  0  0  0  0
   -2.1854   -2.1428   -4.5220 H   0  0  0  0  0  0
    0.0483   -1.0420   -4.6054 H   0  0  0  0  0  0
   -3.1123   -4.1513   -1.1180 H   0  0  0  0  0  0
   -7.3211   -3.9148   -1.8463 H   0  0  0  0  0  0
   -7.0039   -1.8160   -3.0843 H   0  0  0  0  0  0
   -5.0594   -0.6481   -4.5057 H   0  0  0  0  0  0
  1  2  1  0  0  0
  1 39  1  0  0  0
  1 40  1  0  0  0
  1 41  1  0  0  0
  2  3  1  0  0  0
  2 37  1  0  0  0
  2 42  1  0  0  0
  3  4  1  0  0  0
  3 43  1  0  0  0
  3 44  1  0  0  0
  4  5  1  0  0  0
  4 45  1  0  0  0
  4 46  1  0  0  0
  5  6  1  0  0  0
  5 47  1  0  0  0
  5 48  1  0  0  0
  6  7  1  0  0  0
  6 23  1  0  0  0
  6 49  1  0  0  0
  7  8  1  0  0  0
  7 12  1  0  0  0
  8  9  1  0  0  0
  8 50  1  0  0  0
  8 51  1  0  0  0
  9 10  1  0  0  0
  9 52  1  0  0  0
  9 53  1  0  0  0
 10 11  2  0  0  0
 10 14  1  0  0  0
 11 12  1  0  0  0
 11 54  1  0  0  0
 12 13  2  0  0  0
 14 15  2  0  0  0
 14 21  1  0  0  0
 15 16  1  0  0  0
 15 17  1  0  0  0
 17 18  2  0  0  0
 17 55  1  0  0  0
 18 19  1  0  0  0
 18 56  1  0  0  0
 19 20  1  0  0  0
 19 21  2  0  0  0
 21 22  1  0  0  0
 23 24  1  0  0  0
 23 28  2  0  0  0
 24 25  2  0  0  0
 24 57  1  0  0  0
 25 26  1  0  0  0
 25 29  1  0  0  0
 26 27  2  0  0  0
 26 58  1  0  0  0
 27 28  1  0  0  0
 27 59  1  0  0  0
 29 30  2  0  0  0
 29 35  1  0  0  0
 30 31  1  0  0  0
 30 60  1  0  0  0
 31 32  1  0  0  0
 31 33  2  0  0  0
 33 34  1  0  0  0
 33 61  1  0  0  0
 34 35  2  0  0  0
 34 62  1  0  0  0
 35 36  1  0  0  0
 36 37  1  0  0  0
 36 63  1  0  0  0
 37 38  2  0  0  0
M  END
> <chembl_id>
CHEMBL4113604

> <chembl_pref_name>
None

> <i_m_ct_stereo_status>
1

> <s_m_source_file>
sdf/actives_sanitized.sdf

> <i_m_source_file_index>
155

> <i_lp_mmshare_version>
49012

> <i_f3d_flags>
0

> <s_epik_input>
bjFbY0hdW2NIXWMoW2NIXWMxMiljM2MoW2NIXVtjSF1jKEJyKVtjSF0zKVtOSF1DKD1PKVtDQEhdKFtDSDNdKVtDSDJdW0NIMl1bQ0gyXVtDQEBIXTJONFtDSDJdW0NIMl1DKD1bQ0hdQzQ9TyljNWMoRilbY0hdW2NIXWMoQ2wpYzVG

> <s_epik_cmdline>
J2VwaWtfcHl0aG9uJywgJy1waHQnLCAnMC41JywgJy1waCcsICc3LjUnLCAnLW50JywgJy1tYScsICcyMDAnLCAnLWltYWUnLCAnPGluZmlsZS5tYWU+JywgJy1vbWFlJywgJzxvdXRmaWxlLm1hZT4n

> <r_lp_tautomer_probability>
1

> <r_epik_Ionization_Penalty>
  0.0000

> <r_epik_Ionization_Penalty_Charging>
  0.0000

> <r_epik_Ionization_Penalty_Neutral>
  0.0000

> <r_epik_State_Penalty>
 -0.0000

> <r_epik_Charging_Adjusted_Penalty>
0

> <i_epik_Tot_Q>
0

> <i_epik_Tot_abs_Q>
0

> <s_lp_Force_Field>
OPLS3e

> <r_lp_Energy>
93.358315

> <b_lp_Chiralities_Consistent>
1

> <s_lp_Variant>
sdf/actives_sanitized.sdf:155-1

$$$$
sdf/actives_sanitized.sdf:156
                    3D
 Schrodinger Suite 2020-1.
 73 78  0  0  1  0            999 V2000
   -3.6627    3.8302   -2.5956 C   0  0  0  0  0  0
   -2.5831    2.7366   -2.4522 C   0  0  2  0  0  0
   -1.4190    3.2413   -1.5367 C   0  0  0  0  0  0
   -0.2507    2.2558   -1.2586 C   0  0  0  0  0  0
   -0.4493    1.3180   -0.0382 C   0  0  0  0  0  0
    0.1197   -0.1318   -0.1834 C   0  0  2  0  0  0
    1.6026   -0.1633   -0.0916 N   0  0  0  0  0  0
    2.4114    0.3912   -1.2162 C   0  0  0  0  0  0
    3.8371   -0.2181   -1.2697 C   0  0  0  0  0  0
    4.4478   -0.1522    0.1206 C   0  0  0  0  0  0
    3.6280   -0.3411    1.1749 C   0  0  0  0  0  0
    2.1925   -0.5159    1.0984 C   0  0  0  0  0  0
    1.5845   -0.9921    2.0586 O   0  0  0  0  0  0
    5.9204   -0.1769    0.3101 C   0  0  0  0  0  0
    6.7321   -1.0627   -0.4203 C   0  0  0  0  0  0
    6.1928   -1.9343   -1.3043 F   0  0  0  0  0  0
    8.1144   -1.0759   -0.2349 C   0  0  0  0  0  0
    8.7084   -0.2093    0.6782 C   0  0  0  0  0  0
    7.9209    0.6776    1.4088 C   0  0  0  0  0  0
    8.6732    1.7504    2.5355 Cl  0  0  0  0  0  0
    6.5348    0.6968    1.2259 C   0  0  0  0  0  0
    5.7881    1.5801    1.9329 F   0  0  0  0  0  0
   -0.4864   -0.9155   -1.3682 C   0  0  0  0  0  0
   -1.7984   -0.6616   -1.7718 C   0  0  0  0  0  0
   -2.2897   -1.2229   -2.9471 C   0  0  0  0  0  0
   -1.4872   -2.1330   -3.6416 C   0  0  0  0  0  0
   -0.2098   -2.4080   -3.1456 C   0  0  0  0  0  0
    0.2999   -1.8054   -2.0388 N   0  0  0  0  0  0
   -3.6097   -0.7694   -3.4404 C   0  0  0  0  0  0
   -4.7470   -1.5396   -3.1825 C   0  0  0  0  0  0
   -6.0130   -1.0846   -3.5489 C   0  0  0  0  0  0
   -6.1698    0.1547   -4.1731 C   0  0  0  0  0  0
   -7.4700    0.5668   -4.5118 N   0  0  0  0  0  0
   -8.0336    1.8451   -4.6603 C   0  0  0  0  0  0
   -9.3561    1.9421   -5.1007 C   0  0  0  0  0  0
   -9.9204    3.2097   -5.2350 C   0  0  0  0  0  0
   -9.1299    4.3123   -4.9172 C   0  0  0  0  0  0
   -7.8480    4.1840   -4.4862 N   0  0  0  0  0  0
   -7.3083    2.9592   -4.3575 N   0  0  0  0  0  0
   -5.0322    0.9153   -4.4680 C   0  0  0  0  0  0
   -3.7612    0.4678   -4.0970 C   0  0  0  0  0  0
   -2.6500    1.2257   -4.4947 N   0  0  0  0  0  0
   -2.1018    2.2832   -3.8580 C   0  0  0  0  0  0
   -1.1937    2.9064   -4.4070 O   0  0  0  0  0  0
   -4.5179    3.4817   -3.1758 H   0  0  0  0  0  0
   -3.2738    4.7210   -3.0919 H   0  0  0  0  0  0
   -4.0445    4.1368   -1.6213 H   0  0  0  0  0  0
   -3.0621    1.9004   -1.9497 H   0  0  0  0  0  0
   -0.9947    4.1396   -1.9896 H   0  0  0  0  0  0
   -1.8257    3.5800   -0.5825 H   0  0  0  0  0  0
   -0.0353    1.6808   -2.1579 H   0  0  0  0  0  0
    0.6556    2.8376   -1.0851 H   0  0  0  0  0  0
   -0.0072    1.7867    0.8425 H   0  0  0  0  0  0
   -1.5068    1.2634    0.2189 H   0  0  0  0  0  0
   -0.2907   -0.6738    0.6698 H   0  0  0  0  0  0
    1.8763    0.3981   -2.1656 H   0  0  0  0  0  0
    2.5682    1.4420   -0.9676 H   0  0  0  0  0  0
    3.7468   -1.2587   -1.5846 H   0  0  0  0  0  0
    4.4557    0.2989   -2.0040 H   0  0  0  0  0  0
    4.0602   -0.4049    2.1641 H   0  0  0  0  0  0
    8.7274   -1.7641   -0.7982 H   0  0  0  0  0  0
    9.7796   -0.2277    0.8168 H   0  0  0  0  0  0
   -2.4294    0.0095   -1.2153 H   0  0  0  0  0  0
   -1.8344   -2.5977   -4.5530 H   0  0  0  0  0  0
    0.4404   -3.1026   -3.6565 H   0  0  0  0  0  0
   -4.6538   -2.4882   -2.6736 H   0  0  0  0  0  0
   -6.8755   -1.6966   -3.3261 H   0  0  0  0  0  0
   -8.1485   -0.1807   -4.5228 H   0  0  0  0  0  0
   -9.9357    1.0608   -5.3354 H   0  0  0  0  0  0
  -10.9385    3.3326   -5.5742 H   0  0  0  0  0  0
   -9.5158    5.3173   -5.0042 H   0  0  0  0  0  0
   -5.1211    1.8484   -5.0044 H   0  0  0  0  0  0
   -2.2421    0.9629   -5.3800 H   0  0  0  0  0  0
  1  2  1  0  0  0
  1 45  1  0  0  0
  1 46  1  0  0  0
  1 47  1  0  0  0
  2  3  1  0  0  0
  2 43  1  0  0  0
  2 48  1  0  0  0
  3  4  1  0  0  0
  3 49  1  0  0  0
  3 50  1  0  0  0
  4  5  1  0  0  0
  4 51  1  0  0  0
  4 52  1  0  0  0
  5  6  1  0  0  0
  5 53  1  0  0  0
  5 54  1  0  0  0
  6  7  1  0  0  0
  6 23  1  0  0  0
  6 55  1  0  0  0
  7  8  1  0  0  0
  7 12  1  0  0  0
  8  9  1  0  0  0
  8 56  1  0  0  0
  8 57  1  0  0  0
  9 10  1  0  0  0
  9 58  1  0  0  0
  9 59  1  0  0  0
 10 11  2  0  0  0
 10 14  1  0  0  0
 11 12  1  0  0  0
 11 60  1  0  0  0
 12 13  2  0  0  0
 14 15  2  0  0  0
 14 21  1  0  0  0
 15 16  1  0  0  0
 15 17  1  0  0  0
 17 18  2  0  0  0
 17 61  1  0  0  0
 18 19  1  0  0  0
 18 62  1  0  0  0
 19 20  1  0  0  0
 19 21  2  0  0  0
 21 22  1  0  0  0
 23 24  1  0  0  0
 23 28  2  0  0  0
 24 25  2  0  0  0
 24 63  1  0  0  0
 25 26  1  0  0  0
 25 29  1  0  0  0
 26 27  2  0  0  0
 26 64  1  0  0  0
 27 28  1  0  0  0
 27 65  1  0  0  0
 29 30  2  0  0  0
 29 41  1  0  0  0
 30 31  1  0  0  0
 30 66  1  0  0  0
 31 32  2  0  0  0
 31 67  1  0  0  0
 32 33  1  0  0  0
 32 40  1  0  0  0
 33 34  1  0  0  0
 33 68  1  0  0  0
 34 35  2  0  0  0
 34 39  1  0  0  0
 35 36  1  0  0  0
 35 69  1  0  0  0
 36 37  2  0  0  0
 36 70  1  0  0  0
 37 38  1  0  0  0
 37 71  1  0  0  0
 38 39  2  0  0  0
 40 41  2  0  0  0
 40 72  1  0  0  0
 41 42  1  0  0  0
 42 43  1  0  0  0
 42 73  1  0  0  0
 43 44  2  0  0  0
M  END
> <chembl_id>
CHEMBL4113427

> <chembl_pref_name>
None

> <i_m_ct_stereo_status>
1

> <s_m_source_file>
sdf/actives_sanitized.sdf

> <i_m_source_file_index>
156

> <i_lp_mmshare_version>
49012

> <i_f3d_flags>
0

> <s_epik_input>
bjFuW2NIXVtjSF1bY0hdYzFbTkhdYyhbY0hdW2NIXTIpW2NIXWMoYzJjKFtjSF1jMzQpW2NIXVtjSF1uNClbTkhdQyg9TylbQ0BIXShbQ0gzXSlbQ0gyXVtDSDJdW0NIMl1bQ0BASF0zTjVbQ0gyXVtDSDJdQyg9W0NIXUM1PU8pYzZjKEYpW2NIXVtjSF1jKENsKWM2Rg==

> <s_epik_cmdline>
J2VwaWtfcHl0aG9uJywgJy1waHQnLCAnMC41JywgJy1waCcsICc3LjUnLCAnLW50JywgJy1tYScsICcyMDAnLCAnLWltYWUnLCAnPGluZmlsZS5tYWU+JywgJy1vbWFlJywgJzxvdXRmaWxlLm1hZT4n

> <r_lp_tautomer_probability>
1

> <r_epik_Ionization_Penalty>
  0.0032

> <r_epik_Ionization_Penalty_Charging>
  0.0000

> <r_epik_Ionization_Penalty_Neutral>
  0.0032

> <r_epik_State_Penalty>
 -0.0000

> <r_epik_Charging_Adjusted_Penalty>
0

> <i_epik_Tot_Q>
0

> <i_epik_Tot_abs_Q>
0

> <s_lp_Force_Field>
OPLS3e

> <r_lp_Energy>
103.89283

> <b_lp_Chiralities_Consistent>
1

> <s_lp_Variant>
sdf/actives_sanitized.sdf:156-1

$$$$
sdf/actives_sanitized.sdf:157
                    3D
 Schrodinger Suite 2020-1.
 71 75  0  0  1  0            999 V2000
   -1.9718   -1.1138   -0.2226 C   0  0  0  0  0  0
   -0.5602   -0.9658   -0.1521 O   0  0  0  0  0  0
    0.0216    0.2625   -0.1972 C   0  0  0  0  0  0
   -0.6334    1.3041   -0.2918 O   0  0  0  0  0  0
    1.5335    0.2174   -0.0912 C   0  0  0  0  0  0
    2.1916   -1.0278   -0.1117 C   0  0  0  0  0  0
    3.5804   -1.1409   -0.0095 C   0  0  0  0  0  0
    4.3507    0.0330    0.0968 C   0  0  0  0  0  0
    5.7553   -0.0111    0.0507 N   0  0  0  0  0  0
    6.6356    0.1591    1.0635 C   0  0  0  0  0  0
    7.8397    0.1676    0.8110 O   0  0  0  0  0  0
    6.1776    0.3519    2.5343 C   0  0  2  0  0  0
    6.1476    1.8613    2.8616 C   0  0  0  0  0  0
    7.0681   -0.4050    3.5812 C   0  0  0  0  0  0
    6.8569   -1.9335    3.7626 C   0  0  0  0  0  0
    7.5206   -2.8585    2.7059 C   0  0  0  0  0  0
    6.7326   -4.1724    2.3753 C   0  0  2  0  0  0
    7.6467   -5.3241    2.1759 N   0  0  0  0  0  0
    8.7727   -5.1775    1.2077 C   0  0  0  0  0  0
    9.2321   -6.5381    0.6184 C   0  0  0  0  0  0
    9.3919   -7.5344    1.7549 C   0  0  0  0  0  0
    8.5066   -7.4711    2.7707 C   0  0  0  0  0  0
    7.4716   -6.4689    2.9125 C   0  0  0  0  0  0
    6.5034   -6.6797    3.6449 O   0  0  0  0  0  0
   10.2931   -8.7067    1.6208 C   0  0  0  0  0  0
   11.1460   -9.0696    2.6783 C   0  0  0  0  0  0
   11.1669   -8.3529    3.8272 F   0  0  0  0  0  0
   12.0005  -10.1649    2.5594 C   0  0  0  0  0  0
   12.0214  -10.9126    1.3857 C   0  0  0  0  0  0
   11.1866  -10.5663    0.3252 C   0  0  0  0  0  0
   11.2241  -11.5058   -1.1249 Cl  0  0  0  0  0  0
   10.3260   -9.4698    0.4395 C   0  0  0  0  0  0
    9.5115   -9.1640   -0.5992 F   0  0  0  0  0  0
    5.7250   -3.9682    1.2212 C   0  0  0  0  0  0
    4.9712   -2.7985    1.1729 C   0  0  0  0  0  0
    4.2075   -2.4870    0.0538 C   0  0  0  0  0  0
    4.1085   -3.4418   -0.9641 C   0  0  0  0  0  0
    4.8276   -4.6348   -0.8323 C   0  0  0  0  0  0
    5.6403   -4.8984    0.2267 N   0  0  0  0  0  0
    3.7222    1.2774    0.1076 C   0  0  0  0  0  0
    2.3328    1.3813    0.0242 C   0  0  0  0  0  0
    1.8088    2.6780    0.0550 N   0  0  0  0  0  0
   -2.2347   -2.1708   -0.1842 H   0  0  0  0  0  0
   -2.3644   -0.6995   -1.1523 H   0  0  0  0  0  0
   -2.4594   -0.6117    0.6141 H   0  0  0  0  0  0
    1.6291   -1.9478   -0.1888 H   0  0  0  0  0  0
    6.1456   -0.2228   -0.8560 H   0  0  0  0  0  0
    5.1537   -0.0038    2.6473 H   0  0  0  0  0  0
    5.4996    2.4144    2.1812 H   0  0  0  0  0  0
    7.1415    2.3079    2.7997 H   0  0  0  0  0  0
    5.7695    2.0398    3.8688 H   0  0  0  0  0  0
    8.1264   -0.1967    3.4144 H   0  0  0  0  0  0
    6.8610    0.0330    4.5592 H   0  0  0  0  0  0
    7.2713   -2.2144    4.7323 H   0  0  0  0  0  0
    5.7943   -2.1400    3.8801 H   0  0  0  0  0  0
    7.7090   -2.3175    1.7799 H   0  0  0  0  0  0
    8.5180   -3.0991    3.0780 H   0  0  0  0  0  0
    6.1004   -4.3672    3.2432 H   0  0  0  0  0  0
    8.5799   -4.4022    0.4654 H   0  0  0  0  0  0
    9.6156   -4.8088    1.7941 H   0  0  0  0  0  0
    8.4554   -6.8848   -0.0647 H   0  0  0  0  0  0
   10.1545   -6.4243    0.0481 H   0  0  0  0  0  0
    8.5341   -8.2360    3.5344 H   0  0  0  0  0  0
   12.6517  -10.4331    3.3785 H   0  0  0  0  0  0
   12.6862  -11.7600    1.3011 H   0  0  0  0  0  0
    5.0150   -2.0796    1.9655 H   0  0  0  0  0  0
    3.5131   -3.2545   -1.8458 H   0  0  0  0  0  0
    4.7836   -5.3905   -1.6025 H   0  0  0  0  0  0
    4.3244    2.1741    0.1599 H   0  0  0  0  0  0
    2.4328    3.4678    0.1333 H   0  0  0  0  0  0
    0.8088    2.8072   -0.0110 H   0  0  0  0  0  0
  1  2  1  0  0  0
  1 43  1  0  0  0
  1 44  1  0  0  0
  1 45  1  0  0  0
  2  3  1  0  0  0
  3  4  2  0  0  0
  3  5  1  0  0  0
  5  6  2  0  0  0
  5 41  1  0  0  0
  6  7  1  0  0  0
  6 46  1  0  0  0
  7  8  2  0  0  0
  7 36  1  0  0  0
  8  9  1  0  0  0
  8 40  1  0  0  0
  9 10  1  0  0  0
  9 47  1  0  0  0
 10 11  2  0  0  0
 10 12  1  0  0  0
 12 13  1  0  0  0
 12 14  1  0  0  0
 12 48  1  0  0  0
 13 49  1  0  0  0
 13 50  1  0  0  0
 13 51  1  0  0  0
 14 15  1  0  0  0
 14 52  1  0  0  0
 14 53  1  0  0  0
 15 16  1  0  0  0
 15 54  1  0  0  0
 15 55  1  0  0  0
 16 17  1  0  0  0
 16 56  1  0  0  0
 16 57  1  0  0  0
 17 18  1  0  0  0
 17 34  1  0  0  0
 17 58  1  0  0  0
 18 19  1  0  0  0
 18 23  1  0  0  0
 19 20  1  0  0  0
 19 59  1  0  0  0
 19 60  1  0  0  0
 20 21  1  0  0  0
 20 61  1  0  0  0
 20 62  1  0  0  0
 21 22  2  0  0  0
 21 25  1  0  0  0
 22 23  1  0  0  0
 22 63  1  0  0  0
 23 24  2  0  0  0
 25 26  2  0  0  0
 25 32  1  0  0  0
 26 27  1  0  0  0
 26 28  1  0  0  0
 28 29  2  0  0  0
 28 64  1  0  0  0
 29 30  1  0  0  0
 29 65  1  0  0  0
 30 31  1  0  0  0
 30 32  2  0  0  0
 32 33  1  0  0  0
 34 35  1  0  0  0
 34 39  2  0  0  0
 35 36  2  0  0  0
 35 66  1  0  0  0
 36 37  1  0  0  0
 37 38  2  0  0  0
 37 67  1  0  0  0
 38 39  1  0  0  0
 38 68  1  0  0  0
 40 41  2  0  0  0
 40 69  1  0  0  0
 41 42  1  0  0  0
 42 70  1  0  0  0
 42 71  1  0  0  0
M  END
> <chembl_id>
CHEMBL4106744

> <chembl_pref_name>
None

> <i_m_ct_stereo_status>
1

> <s_m_source_file>
sdf/actives_sanitized.sdf

> <i_m_source_file_index>
157

> <i_lp_mmshare_version>
49012

> <i_f3d_flags>
0

> <s_epik_input>
W0NIM11PQyg9TyljKFtjSF0xKWMoW05IMl0pW2NIXWMoYzEyKVtOSF1DKD1PKVtDQEhdKFtDSDNdKVtDSDJdW0NIMl1bQ0gyXVtDQEBIXShjM1tjSF1jMltjSF1bY0hdbjMpTjRbQ0gyXVtDSDJdQyg9W0NIXUM0PU8pYzVjKEYpW2NIXVtjSF1jKENsKWM1Rg==

> <s_epik_cmdline>
J2VwaWtfcHl0aG9uJywgJy1waHQnLCAnMC41JywgJy1waCcsICc3LjUnLCAnLW50JywgJy1tYScsICcyMDAnLCAnLWltYWUnLCAnPGluZmlsZS5tYWU+JywgJy1vbWFlJywgJzxvdXRmaWxlLm1hZT4n

> <r_lp_tautomer_probability>
1

> <r_epik_Ionization_Penalty>
  0.0001

> <r_epik_Ionization_Penalty_Charging>
  0.0000

> <r_epik_Ionization_Penalty_Neutral>
  0.0001

> <r_epik_State_Penalty>
 -0.0000

> <r_epik_Charging_Adjusted_Penalty>
0

> <i_epik_Tot_Q>
0

> <i_epik_Tot_abs_Q>
0

> <s_epik_Chemistry_Notes>
This compound has an ester and may undergo hydrolysis at high or low pH.

> <s_lp_Force_Field>
OPLS3e

> <r_lp_Energy>
92.410503

> <b_lp_Chiralities_Consistent>
1

> <s_lp_Variant>
sdf/actives_sanitized.sdf:157-1

$$$$
sdf/actives_sanitized.sdf:158
                    3D
 Schrodinger Suite 2020-1.
 68 72  0  0  1  0            999 V2000
   -5.2732    1.7129   -0.8131 C   0  0  0  0  0  0
   -4.1477    0.9574   -1.5489 C   0  0  2  0  0  0
   -2.7731    1.6751   -1.4022 C   0  0  0  0  0  0
   -2.1118    1.5529   -0.0033 C   0  0  0  0  0  0
   -0.5605    1.4686   -0.0220 C   0  0  0  0  0  0
    0.0404    0.0356   -0.1928 C   0  0  2  0  0  0
    1.5215   -0.0048   -0.0993 N   0  0  0  0  0  0
    2.3302    1.0792   -0.7347 C   0  0  0  0  0  0
    3.7592    0.6254   -1.1394 C   0  0  0  0  0  0
    4.3605   -0.1848   -0.0079 C   0  0  0  0  0  0
    3.5482   -0.9750    0.7175 C   0  0  0  0  0  0
    2.1150   -1.0638    0.5442 C   0  0  0  0  0  0
    1.5061   -2.0529    0.9565 O   0  0  0  0  0  0
    5.8309   -0.3094    0.1293 C   0  0  0  0  0  0
    6.4564    0.3537    1.1979 C   0  0  0  0  0  0
    5.7155    1.0679    2.0806 F   0  0  0  0  0  0
    7.8421    0.2888    1.3632 C   0  0  0  0  0  0
    8.6084    1.1013    2.6817 Cl  0  0  0  0  0  0
    8.6178   -0.4333    0.4605 C   0  0  0  0  0  0
    8.0140   -1.0917   -0.6074 C   0  0  0  0  0  0
    6.6275   -1.0367   -0.7839 C   0  0  0  0  0  0
    6.0574   -1.7626   -1.9171 C   0  0  0  0  0  0
    5.6051   -2.3370   -2.8140 N   0  0  0  0  0  0
   -0.5102   -0.6781   -1.4308 C   0  0  0  0  0  0
   -1.6968   -1.4062   -1.3272 C   0  0  0  0  0  0
   -2.3458   -1.8223   -2.4923 C   0  0  0  0  0  0
   -1.7114   -1.6120   -3.7228 C   0  0  0  0  0  0
   -0.4746   -0.9631   -3.7409 C   0  0  0  0  0  0
    0.1211   -0.4793   -2.6209 N   0  0  0  0  0  0
   -3.7178   -2.3812   -2.3988 C   0  0  0  0  0  0
   -3.9079   -3.6054   -1.7509 C   0  0  0  0  0  0
   -5.1798   -4.1574   -1.6127 C   0  0  0  0  0  0
   -6.3092   -3.4964   -2.1199 C   0  0  0  0  0  0
   -6.1221   -2.2646   -2.7633 C   0  0  0  0  0  0
   -4.8503   -1.6975   -2.8910 C   0  0  0  0  0  0
   -4.7734   -0.4679   -3.5652 N   0  0  0  0  0  0
   -4.5047    0.7520   -3.0455 C   0  0  0  0  0  0
   -4.5428    1.7380   -3.7808 O   0  0  0  0  0  0
   -7.7037   -4.0727   -1.9820 C   0  0  0  0  0  0
   -8.7005   -3.4312   -2.3122 O   0  0  0  0  0  0
   -7.8144   -5.3102   -1.4857 N   0  0  0  0  0  0
   -6.2243    1.1840   -0.8915 H   0  0  0  0  0  0
   -5.4213    2.7154   -1.2174 H   0  0  0  0  0  0
   -5.0498    1.8161    0.2492 H   0  0  0  0  0  0
   -4.0706   -0.0160   -1.0697 H   0  0  0  0  0  0
   -2.0871    1.2886   -2.1551 H   0  0  0  0  0  0
   -2.8729    2.7307   -1.6611 H   0  0  0  0  0  0
   -2.4141    2.4183    0.5883 H   0  0  0  0  0  0
   -2.5064    0.6937    0.5403 H   0  0  0  0  0  0
   -0.1794    2.1512   -0.7820 H   0  0  0  0  0  0
   -0.1987    1.8630    0.9288 H   0  0  0  0  0  0
   -0.3465   -0.5199    0.6641 H   0  0  0  0  0  0
    1.7903    1.5825   -1.5365 H   0  0  0  0  0  0
    2.4552    1.8363    0.0408 H   0  0  0  0  0  0
    3.6714   -0.0047   -2.0254 H   0  0  0  0  0  0
    4.3845    1.4790   -1.4029 H   0  0  0  0  0  0
    3.9854   -1.6250    1.4629 H   0  0  0  0  0  0
    9.6896   -0.4855    0.5853 H   0  0  0  0  0  0
    8.6383   -1.6468   -1.2943 H   0  0  0  0  0  0
   -2.1759   -1.5306   -0.3666 H   0  0  0  0  0  0
   -2.1768   -1.9250   -4.6461 H   0  0  0  0  0  0
    0.0390   -0.7843   -4.6741 H   0  0  0  0  0  0
   -3.0592   -4.1396   -1.3481 H   0  0  0  0  0  0
   -5.2670   -5.1057   -1.1022 H   0  0  0  0  0  0
   -6.9735   -1.7310   -3.1647 H   0  0  0  0  0  0
   -5.0651   -0.4903   -4.5315 H   0  0  0  0  0  0
   -6.9913   -5.8298   -1.2198 H   0  0  0  0  0  0
   -8.7256   -5.7311   -1.3772 H   0  0  0  0  0  0
  1  2  1  0  0  0
  1 42  1  0  0  0
  1 43  1  0  0  0
  1 44  1  0  0  0
  2  3  1  0  0  0
  2 37  1  0  0  0
  2 45  1  0  0  0
  3  4  1  0  0  0
  3 46  1  0  0  0
  3 47  1  0  0  0
  4  5  1  0  0  0
  4 48  1  0  0  0
  4 49  1  0  0  0
  5  6  1  0  0  0
  5 50  1  0  0  0
  5 51  1  0  0  0
  6  7  1  0  0  0
  6 24  1  0  0  0
  6 52  1  0  0  0
  7  8  1  0  0  0
  7 12  1  0  0  0
  8  9  1  0  0  0
  8 53  1  0  0  0
  8 54  1  0  0  0
  9 10  1  0  0  0
  9 55  1  0  0  0
  9 56  1  0  0  0
 10 11  2  0  0  0
 10 14  1  0  0  0
 11 12  1  0  0  0
 11 57  1  0  0  0
 12 13  2  0  0  0
 14 15  2  0  0  0
 14 21  1  0  0  0
 15 16  1  0  0  0
 15 17  1  0  0  0
 17 18  1  0  0  0
 17 19  2  0  0  0
 19 20  1  0  0  0
 19 58  1  0  0  0
 20 21  2  0  0  0
 20 59  1  0  0  0
 21 22  1  0  0  0
 22 23  3  0  0  0
 24 25  1  0  0  0
 24 29  2  0  0  0
 25 26  2  0  0  0
 25 60  1  0  0  0
 26 27  1  0  0  0
 26 30  1  0  0  0
 27 28  2  0  0  0
 27 61  1  0  0  0
 28 29  1  0  0  0
 28 62  1  0  0  0
 30 31  2  0  0  0
 30 35  1  0  0  0
 31 32  1  0  0  0
 31 63  1  0  0  0
 32 33  2  0  0  0
 32 64  1  0  0  0
 33 34  1  0  0  0
 33 39  1  0  0  0
 34 35  2  0  0  0
 34 65  1  0  0  0
 35 36  1  0  0  0
 36 37  1  0  0  0
 36 66  1  0  0  0
 37 38  2  0  0  0
 39 40  2  0  0  0
 39 41  1  0  0  0
 41 67  1  0  0  0
 41 68  1  0  0  0
M  END
> <chembl_id>
CHEMBL4113610

> <chembl_pref_name>
None

> <i_m_ct_stereo_status>
1

> <s_m_source_file>
sdf/actives_sanitized.sdf

> <i_m_source_file_index>
158

> <i_lp_mmshare_version>
49012

> <i_f3d_flags>
0

> <s_epik_input>
bjFbY0hdW2NIXWMoW2NIXWMxMiljM2MoW2NIXWMoW2NIXVtjSF0zKUMoPU8pW05IMl0pW05IXUMoPU8pW0NASF0oW0NIM10pW0NIMl1bQ0gyXVtDSDJdW0NAQEhdMk40W0NIMl1bQ0gyXUMoPVtDSF1DND1PKWM1YyhGKWMoQ2wpW2NIXVtjSF1jNUMjTg==

> <s_epik_cmdline>
J2VwaWtfcHl0aG9uJywgJy1waHQnLCAnMC41JywgJy1waCcsICc3LjUnLCAnLW50JywgJy1tYScsICcyMDAnLCAnLWltYWUnLCAnPGluZmlsZS5tYWU+JywgJy1vbWFlJywgJzxvdXRmaWxlLm1hZT4n

> <r_lp_tautomer_probability>
1

> <r_epik_Ionization_Penalty>
  0.0001

> <r_epik_Ionization_Penalty_Charging>
  0.0000

> <r_epik_Ionization_Penalty_Neutral>
  0.0001

> <r_epik_State_Penalty>
 -0.0000

> <r_epik_Charging_Adjusted_Penalty>
0

> <i_epik_Tot_Q>
0

> <i_epik_Tot_abs_Q>
0

> <s_lp_Force_Field>
OPLS3e

> <r_lp_Energy>
94.929845

> <b_lp_Chiralities_Consistent>
1

> <s_lp_Variant>
sdf/actives_sanitized.sdf:158-1

$$$$
sdf/actives_sanitized.sdf:159
                    3D
 Schrodinger Suite 2020-1.
 67 71  0  0  1  0            999 V2000
   -5.2487    1.7687   -0.9173 C   0  0  0  0  0  0
   -4.1339    0.9678   -1.6207 C   0  0  2  0  0  0
   -2.7490    1.6703   -1.4994 C   0  0  0  0  0  0
   -2.0940    1.5964   -0.0945 C   0  0  0  0  0  0
   -0.5442    1.4904   -0.1047 C   0  0  0  0  0  0
    0.0391    0.0442   -0.2135 C   0  0  2  0  0  0
    1.5196   -0.0050   -0.1128 N   0  0  0  0  0  0
    2.3398    1.0357   -0.8026 C   0  0  0  0  0  0
    3.7694    0.5487   -1.1636 C   0  0  0  0  0  0
    4.3633   -0.1743    0.0323 C   0  0  0  0  0  0
    3.5345   -0.9300    0.7797 C   0  0  0  0  0  0
    2.1034   -1.0305    0.5902 C   0  0  0  0  0  0
    1.4870   -1.9959    1.0453 O   0  0  0  0  0  0
    5.8331   -0.2922    0.1999 C   0  0  0  0  0  0
    6.4250   -0.0488    1.4516 C   0  0  0  0  0  0
    5.6674    0.3035    2.5175 F   0  0  0  0  0  0
    7.8059   -0.1506    1.6169 C   0  0  0  0  0  0
    8.6167   -0.4941    0.5388 C   0  0  0  0  0  0
    8.0482   -0.7376   -0.7099 C   0  0  0  0  0  0
    9.0685   -1.1662   -2.0373 Cl  0  0  0  0  0  0
    6.6637   -0.6377   -0.8812 C   0  0  0  0  0  0
    6.1318   -0.8953   -2.1003 F   0  0  0  0  0  0
   -0.5165   -0.7123   -1.4235 C   0  0  0  0  0  0
   -1.7163   -1.4151   -1.2976 C   0  0  0  0  0  0
   -2.3646   -1.8687   -2.4491 C   0  0  0  0  0  0
   -1.7195   -1.7205   -3.6830 C   0  0  0  0  0  0
   -0.4719   -1.0941   -3.7197 C   0  0  0  0  0  0
    0.1249   -0.5745   -2.6167 N   0  0  0  0  0  0
   -3.7427   -2.4083   -2.3439 C   0  0  0  0  0  0
   -3.9453   -3.6145   -1.6626 C   0  0  0  0  0  0
   -5.2201   -4.1686   -1.5188 C   0  0  0  0  0  0
   -5.3612   -5.4945   -0.7734 C   0  0  0  0  0  0
   -6.6779   -6.0069   -0.6953 O   0  0  0  0  0  0
   -6.3183   -3.4929   -2.0633 C   0  0  0  0  0  0
   -6.1402   -2.2856   -2.7348 C   0  0  0  0  0  0
   -4.8654   -1.7293   -2.8671 C   0  0  0  0  0  0
   -4.7751   -0.5245   -3.5830 N   0  0  0  0  0  0
   -4.4916    0.7105   -3.1089 C   0  0  0  0  0  0
   -4.5175    1.6686   -3.8805 O   0  0  0  0  0  0
   -6.2092    1.2547   -0.9805 H   0  0  0  0  0  0
   -5.3771    2.7585   -1.3582 H   0  0  0  0  0  0
   -5.0271    1.9059    0.1414 H   0  0  0  0  0  0
   -4.0728    0.0127   -1.1042 H   0  0  0  0  0  0
   -2.0667    1.2418   -2.2329 H   0  0  0  0  0  0
   -2.8314    2.7158   -1.8024 H   0  0  0  0  0  0
   -2.3854    2.4898    0.4596 H   0  0  0  0  0  0
   -2.5023    0.7663    0.4828 H   0  0  0  0  0  0
   -0.1517    2.1345   -0.8920 H   0  0  0  0  0  0
   -0.1790    1.9203    0.8292 H   0  0  0  0  0  0
   -0.3567   -0.4725    0.6635 H   0  0  0  0  0  0
    1.8098    1.4917   -1.6386 H   0  0  0  0  0  0
    2.4600    1.8382   -0.0736 H   0  0  0  0  0  0
    3.6808   -0.1464   -1.9998 H   0  0  0  0  0  0
    4.3954    1.3815   -1.4859 H   0  0  0  0  0  0
    3.9540   -1.5409    1.5670 H   0  0  0  0  0  0
    8.2497    0.0411    2.5829 H   0  0  0  0  0  0
    9.6857   -0.5705    0.6743 H   0  0  0  0  0  0
   -2.2034   -1.4918   -0.3360 H   0  0  0  0  0  0
   -2.1840   -2.0656   -4.5953 H   0  0  0  0  0  0
    0.0507   -0.9639   -4.6557 H   0  0  0  0  0  0
   -3.0947   -4.1341   -1.2436 H   0  0  0  0  0  0
   -4.7357   -6.2393   -1.2671 H   0  0  0  0  0  0
   -4.9834   -5.3652    0.2415 H   0  0  0  0  0  0
   -6.6531   -6.8435   -0.2250 H   0  0  0  0  0  0
   -7.3169   -3.8945   -1.9729 H   0  0  0  0  0  0
   -7.0029   -1.7823   -3.1479 H   0  0  0  0  0  0
   -5.0669   -0.5780   -4.5480 H   0  0  0  0  0  0
  1  2  1  0  0  0
  1 40  1  0  0  0
  1 41  1  0  0  0
  1 42  1  0  0  0
  2  3  1  0  0  0
  2 38  1  0  0  0
  2 43  1  0  0  0
  3  4  1  0  0  0
  3 44  1  0  0  0
  3 45  1  0  0  0
  4  5  1  0  0  0
  4 46  1  0  0  0
  4 47  1  0  0  0
  5  6  1  0  0  0
  5 48  1  0  0  0
  5 49  1  0  0  0
  6  7  1  0  0  0
  6 23  1  0  0  0
  6 50  1  0  0  0
  7  8  1  0  0  0
  7 12  1  0  0  0
  8  9  1  0  0  0
  8 51  1  0  0  0
  8 52  1  0  0  0
  9 10  1  0  0  0
  9 53  1  0  0  0
  9 54  1  0  0  0
 10 11  2  0  0  0
 10 14  1  0  0  0
 11 12  1  0  0  0
 11 55  1  0  0  0
 12 13  2  0  0  0
 14 15  2  0  0  0
 14 21  1  0  0  0
 15 16  1  0  0  0
 15 17  1  0  0  0
 17 18  2  0  0  0
 17 56  1  0  0  0
 18 19  1  0  0  0
 18 57  1  0  0  0
 19 20  1  0  0  0
 19 21  2  0  0  0
 21 22  1  0  0  0
 23 24  1  0  0  0
 23 28  2  0  0  0
 24 25  2  0  0  0
 24 58  1  0  0  0
 25 26  1  0  0  0
 25 29  1  0  0  0
 26 27  2  0  0  0
 26 59  1  0  0  0
 27 28  1  0  0  0
 27 60  1  0  0  0
 29 30  2  0  0  0
 29 36  1  0  0  0
 30 31  1  0  0  0
 30 61  1  0  0  0
 31 32  1  0  0  0
 31 34  2  0  0  0
 32 33  1  0  0  0
 32 62  1  0  0  0
 32 63  1  0  0  0
 33 64  1  0  0  0
 34 35  1  0  0  0
 34 65  1  0  0  0
 35 36  2  0  0  0
 35 66  1  0  0  0
 36 37  1  0  0  0
 37 38  1  0  0  0
 37 67  1  0  0  0
 38 39  2  0  0  0
M  END
> <chembl_id>
CHEMBL4112150

> <chembl_pref_name>
None

> <i_m_ct_stereo_status>
1

> <s_m_source_file>
sdf/actives_sanitized.sdf

> <i_m_source_file_index>
159

> <i_lp_mmshare_version>
49012

> <i_f3d_flags>
0

> <s_epik_input>
bjFbY0hdW2NIXWMoW2NIXWMxMiljM2MoW2NIXVtjSF1jKFtjSF0zKVtDSDJdW09IXSlbTkhdQyg9TylbQ0BIXShbQ0gzXSlbQ0gyXVtDSDJdW0NIMl1bQ0BASF0yTjRbQ0gyXVtDSDJdQyg9W0NIXUM0PU8pYzVjKEYpW2NIXVtjSF1jKENsKWM1Rg==

> <s_epik_cmdline>
J2VwaWtfcHl0aG9uJywgJy1waHQnLCAnMC41JywgJy1waCcsICc3LjUnLCAnLW50JywgJy1tYScsICcyMDAnLCAnLWltYWUnLCAnPGluZmlsZS5tYWU+JywgJy1vbWFlJywgJzxvdXRmaWxlLm1hZT4n

> <r_lp_tautomer_probability>
1

> <r_epik_Ionization_Penalty>
  0.0002

> <r_epik_Ionization_Penalty_Charging>
  0.0000

> <r_epik_Ionization_Penalty_Neutral>
  0.0002

> <r_epik_State_Penalty>
 -0.0000

> <r_epik_Charging_Adjusted_Penalty>
0

> <i_epik_Tot_Q>
0

> <i_epik_Tot_abs_Q>
0

> <s_lp_Force_Field>
OPLS3e

> <r_lp_Energy>
94.907896

> <b_lp_Chiralities_Consistent>
1

> <s_lp_Variant>
sdf/actives_sanitized.sdf:159-1

$$$$
sdf/actives_sanitized.sdf:160
                    3D
 Schrodinger Suite 2020-1.
 61 66  0  0  1  0            999 V2000
   -0.5074    1.6287    0.0014 C   0  0  0  0  0  0
    0.0022    2.4961   -0.9810 C   0  0  0  0  0  0
   -0.3822    3.8348   -1.0339 C   0  0  0  0  0  0
   -1.2907    4.3349   -0.1046 C   0  0  0  0  0  0
   -1.8142    3.4933    0.8755 C   0  0  0  0  0  0
   -1.4269    2.1537    0.9273 C   0  0  0  0  0  0
   -0.4645   -5.4856   -3.5806 C   0  0  0  0  0  0
   -0.2903   -5.4477   -2.1979 C   0  0  0  0  0  0
   -0.6853   -3.0604   -3.6272 C   0  0  0  0  0  0
   -0.6613   -4.2945   -4.2832 C   0  0  0  0  0  0
   -0.5059   -3.0170   -2.2318 C   0  0  0  0  0  0
   -0.3147   -4.2356   -1.5596 N   0  0  0  0  0  0
   -0.1646   -4.0657   -0.2282 N   0  0  0  0  0  0
   -0.4569   -2.0379   -1.2091 C   0  0  0  0  0  0
   -0.2484   -2.7668   -0.0284 C   0  0  0  0  0  0
   -0.1235   -2.1203    1.3427 C   0  0  0  0  0  0
   -0.6041   -0.6494    1.2631 C   0  0  0  0  0  0
   -0.0415    0.1422    0.0317 C   0  0  1  0  0  0
   -0.6246   -0.5241   -1.2574 C   0  0  0  0  0  0
    1.4385    0.1107   -0.0044 N   0  0  0  0  0  0
    2.2901    0.6440    0.8952 C   0  0  0  0  0  0
    3.7444    0.4067    0.5931 C   0  0  0  0  0  0
    1.9531    1.3049    1.8776 O   0  0  0  0  0  0
    4.4390   -0.6533    1.2066 C   0  0  0  0  0  0
    5.7875   -0.8654    0.9191 C   0  0  0  0  0  0
    6.4741   -0.0355    0.0229 C   0  0  0  0  0  0
    5.7817    1.0200   -0.5809 C   0  0  0  0  0  0
    4.4334    1.2471   -0.3028 C   0  0  0  0  0  0
    3.6662    2.5852   -1.0973 Cl  0  0  0  0  0  0
    7.8461   -0.2522   -0.2704 N   0  0  0  0  0  0
    8.7469    0.5591   -0.9170 C   0  0  0  0  0  0
    9.9228   -0.0088   -0.9851 N   0  0  0  0  0  0
    9.7147   -1.1596   -0.3655 C   0  0  0  0  0  0
    8.4947   -1.3738    0.0808 N   0  0  0  0  0  0
   10.8129   -2.1871   -0.2057 C   0  0  0  0  0  0
   -0.4364   -6.8168   -4.3082 C   0  0  0  0  0  0
    3.6809   -1.7308    2.3344 Cl  0  0  0  0  0  0
   -1.6630    5.6341   -0.1564 F   0  0  0  0  0  0
   -2.6991    3.9732    1.7790 F   0  0  0  0  0  0
    0.7089    2.1313   -1.7121 H   0  0  0  0  0  0
    0.0260    4.4832   -1.7952 H   0  0  0  0  0  0
   -1.8576    1.5414    1.7036 H   0  0  0  0  0  0
   -0.1357   -6.3278   -1.5896 H   0  0  0  0  0  0
   -0.8380   -2.1511   -4.1894 H   0  0  0  0  0  0
   -0.7981   -4.3192   -5.3548 H   0  0  0  0  0  0
   -0.7040   -2.6597    2.0923 H   0  0  0  0  0  0
    0.9151   -2.1457    1.6699 H   0  0  0  0  0  0
   -1.6945   -0.6647    1.2141 H   0  0  0  0  0  0
   -0.3580   -0.1453    2.1986 H   0  0  0  0  0  0
   -0.1391   -0.1232   -2.1487 H   0  0  0  0  0  0
   -1.6857   -0.2916   -1.3650 H   0  0  0  0  0  0
    1.8251   -0.6146   -0.5905 H   0  0  0  0  0  0
    6.2971   -1.6842    1.4067 H   0  0  0  0  0  0
    6.2791    1.6771   -1.2785 H   0  0  0  0  0  0
    8.4700    1.5313   -1.2957 H   0  0  0  0  0  0
   10.4476   -3.1797    0.0611 H   0  0  0  0  0  0
   11.5852   -1.8623    0.4919 H   0  0  0  0  0  0
   11.3397   -2.3191   -1.1513 H   0  0  0  0  0  0
   -0.5429   -6.6991   -5.3874 H   0  0  0  0  0  0
   -1.2400   -7.4602   -3.9483 H   0  0  0  0  0  0
    0.5057   -7.3306   -4.1137 H   0  0  0  0  0  0
  1  2  2  0  0  0
  1  6  1  0  0  0
  1 18  1  0  0  0
  2  3  1  0  0  0
  2 40  1  0  0  0
  3  4  2  0  0  0
  3 41  1  0  0  0
  4  5  1  0  0  0
  4 38  1  0  0  0
  5  6  2  0  0  0
  5 39  1  0  0  0
  6 42  1  0  0  0
  7  8  2  0  0  0
  7 10  1  0  0  0
  7 36  1  0  0  0
  8 12  1  0  0  0
  8 43  1  0  0  0
  9 11  1  0  0  0
  9 10  2  0  0  0
  9 44  1  0  0  0
 10 45  1  0  0  0
 11 12  1  0  0  0
 11 14  2  0  0  0
 12 13  1  0  0  0
 13 15  2  0  0  0
 14 15  1  0  0  0
 14 19  1  0  0  0
 15 16  1  0  0  0
 16 17  1  0  0  0
 16 46  1  0  0  0
 16 47  1  0  0  0
 17 18  1  0  0  0
 17 48  1  0  0  0
 17 49  1  0  0  0
 18 19  1  0  0  0
 18 20  1  0  0  0
 19 50  1  0  0  0
 19 51  1  0  0  0
 20 21  1  0  0  0
 20 52  1  0  0  0
 21 22  1  0  0  0
 21 23  2  0  0  0
 22 24  2  0  0  0
 22 28  1  0  0  0
 24 25  1  0  0  0
 24 37  1  0  0  0
 25 26  2  0  0  0
 25 53  1  0  0  0
 26 27  1  0  0  0
 26 30  1  0  0  0
 27 28  2  0  0  0
 27 54  1  0  0  0
 28 29  1  0  0  0
 30 31  1  0  0  0
 30 34  1  0  0  0
 31 32  2  0  0  0
 31 55  1  0  0  0
 32 33  1  0  0  0
 33 34  2  0  0  0
 33 35  1  0  0  0
 35 56  1  0  0  0
 35 57  1  0  0  0
 35 58  1  0  0  0
 36 59  1  0  0  0
 36 60  1  0  0  0
 36 61  1  0  0  0
M  END
> <chembl_id>
CHEMBL3628952

> <chembl_pref_name>
None

> <i_m_ct_stereo_status>
1

> <s_m_source_file>
sdf/actives_sanitized.sdf

> <i_m_source_file_index>
160

> <i_lp_mmshare_version>
49012

> <i_f3d_flags>
0

> <s_epik_input>
W2NIXTFbY0hdYyhbQ0gzXSlbY0hdbihjMTIpbmMzYzJbQ0gyXVtDQF0oW0NIMl1bQ0gyXTMpKGM0W2NIXVtjSF1jKEYpYyhGKVtjSF00KVtOSF1DKD1PKWM1YyhDbClbY0hdYyhbY0hdYzVDbCktbjZbY0hdbmMobjYpW0NIM10=

> <s_epik_cmdline>
J2VwaWtfcHl0aG9uJywgJy1waHQnLCAnMC41JywgJy1waCcsICc3LjUnLCAnLW50JywgJy1tYScsICcyMDAnLCAnLWltYWUnLCAnPGluZmlsZS5tYWU+JywgJy1vbWFlJywgJzxvdXRmaWxlLm1hZT4n

> <r_lp_tautomer_probability>
1

> <r_epik_Ionization_Penalty>
  0.0001

> <r_epik_Ionization_Penalty_Charging>
  0.0000

> <r_epik_Ionization_Penalty_Neutral>
  0.0001

> <r_epik_State_Penalty>
 -0.0000

> <r_epik_Charging_Adjusted_Penalty>
0

> <i_epik_Tot_Q>
0

> <i_epik_Tot_abs_Q>
0

> <s_lp_Force_Field>
OPLS3e

> <r_lp_Energy>
34.142753

> <b_lp_Chiralities_Consistent>
1

> <s_lp_Variant>
sdf/actives_sanitized.sdf:160-1

$$$$
sdf/actives_sanitized.sdf:161
                    3D
 Schrodinger Suite 2020-1.
 63 67  0  0  1  0            999 V2000
   -5.2338    1.8165   -0.9447 C   0  0  0  0  0  0
   -4.1260    0.9829   -1.6206 C   0  0  2  0  0  0
   -2.7339    1.6718   -1.5107 C   0  0  0  0  0  0
   -2.0853    1.6227   -0.1015 C   0  0  0  0  0  0
   -0.5359    1.5125   -0.1036 C   0  0  0  0  0  0
    0.0463    0.0638   -0.1891 C   0  0  2  0  0  0
    1.5274    0.0155   -0.0981 N   0  0  0  0  0  0
    2.3436    1.0436   -0.8114 C   0  0  0  0  0  0
    3.7675    0.5461   -1.1806 C   0  0  0  0  0  0
    4.3717   -0.1614    0.0194 C   0  0  0  0  0  0
    3.5485   -0.9027    0.7871 C   0  0  0  0  0  0
    2.1153   -1.0009    0.6147 C   0  0  0  0  0  0
    1.5014   -1.9573    1.0912 O   0  0  0  0  0  0
    5.8421   -0.2871    0.1717 C   0  0  0  0  0  0
    6.4501   -0.0252    1.4118 C   0  0  0  0  0  0
    5.7078    0.3555    2.4786 F   0  0  0  0  0  0
    7.8314   -0.1388    1.5641 C   0  0  0  0  0  0
    8.6264   -0.5127    0.4842 C   0  0  0  0  0  0
    8.0417   -0.7739   -0.7533 C   0  0  0  0  0  0
    9.0427   -1.2405   -2.0825 Cl  0  0  0  0  0  0
    6.6566   -0.6616   -0.9117 C   0  0  0  0  0  0
    6.1085   -0.9362   -2.1198 F   0  0  0  0  0  0
   -0.5174   -0.7178   -1.3795 C   0  0  0  0  0  0
   -1.7210   -1.4104   -1.2337 C   0  0  0  0  0  0
   -2.3746   -1.8886   -2.3721 C   0  0  0  0  0  0
   -1.7305   -1.7764   -3.6103 C   0  0  0  0  0  0
   -0.4796   -1.1582   -3.6654 C   0  0  0  0  0  0
    0.1221   -0.6134   -2.5773 N   0  0  0  0  0  0
   -3.7579   -2.4126   -2.2515 C   0  0  0  0  0  0
   -3.9741   -3.5947   -1.5320 C   0  0  0  0  0  0
   -5.2573   -4.1161   -1.3767 C   0  0  0  0  0  0
   -6.3486   -3.4585   -1.9379 C   0  0  0  0  0  0
   -6.1574   -2.2759   -2.6490 C   0  0  0  0  0  0
   -4.8748   -1.7381   -2.7966 C   0  0  0  0  0  0
   -4.7714   -0.5549   -3.5457 N   0  0  0  0  0  0
   -4.4791    0.6896   -3.1033 C   0  0  0  0  0  0
   -4.4930    1.6271   -3.9003 O   0  0  0  0  0  0
   -6.2015    1.3158   -1.0035 H   0  0  0  0  0  0
   -5.3434    2.7977   -1.4093 H   0  0  0  0  0  0
   -5.0183    1.9748    0.1124 H   0  0  0  0  0  0
   -4.0794    0.0408   -1.0788 H   0  0  0  0  0  0
   -2.0539    1.2196   -2.2315 H   0  0  0  0  0  0
   -2.8036    2.7105   -1.8389 H   0  0  0  0  0  0
   -2.3769    2.5271    0.4343 H   0  0  0  0  0  0
   -2.4974    0.8044    0.4899 H   0  0  0  0  0  0
   -0.1402    2.1454   -0.8982 H   0  0  0  0  0  0
   -0.1736    1.9551    0.8255 H   0  0  0  0  0  0
   -0.3429   -0.4358    0.7006 H   0  0  0  0  0  0
    1.8065    1.4885   -1.6487 H   0  0  0  0  0  0
    2.4745    1.8568   -0.0960 H   0  0  0  0  0  0
    3.6671   -0.1609   -2.0053 H   0  0  0  0  0  0
    4.3933    1.3711   -1.5225 H   0  0  0  0  0  0
    3.9748   -1.5045    1.5777 H   0  0  0  0  0  0
    8.2880    0.0666    2.5213 H   0  0  0  0  0  0
    9.6957   -0.5989    0.6100 H   0  0  0  0  0  0
   -2.2068   -1.4599   -0.2696 H   0  0  0  0  0  0
   -2.1985   -2.1420   -4.5127 H   0  0  0  0  0  0
    0.0418   -1.0548   -4.6055 H   0  0  0  0  0  0
   -3.1383   -4.1197   -1.0914 H   0  0  0  0  0  0
   -5.4047   -5.0318   -0.8231 H   0  0  0  0  0  0
   -7.3428   -3.8644   -1.8220 H   0  0  0  0  0  0
   -7.0139   -1.7755   -3.0784 H   0  0  0  0  0  0
   -5.0604   -0.6323   -4.5099 H   0  0  0  0  0  0
  1  2  1  0  0  0
  1 38  1  0  0  0
  1 39  1  0  0  0
  1 40  1  0  0  0
  2  3  1  0  0  0
  2 36  1  0  0  0
  2 41  1  0  0  0
  3  4  1  0  0  0
  3 42  1  0  0  0
  3 43  1  0  0  0
  4  5  1  0  0  0
  4 44  1  0  0  0
  4 45  1  0  0  0
  5  6  1  0  0  0
  5 46  1  0  0  0
  5 47  1  0  0  0
  6  7  1  0  0  0
  6 23  1  0  0  0
  6 48  1  0  0  0
  7  8  1  0  0  0
  7 12  1  0  0  0
  8  9  1  0  0  0
  8 49  1  0  0  0
  8 50  1  0  0  0
  9 10  1  0  0  0
  9 51  1  0  0  0
  9 52  1  0  0  0
 10 11  2  0  0  0
 10 14  1  0  0  0
 11 12  1  0  0  0
 11 53  1  0  0  0
 12 13  2  0  0  0
 14 15  2  0  0  0
 14 21  1  0  0  0
 15 16  1  0  0  0
 15 17  1  0  0  0
 17 18  2  0  0  0
 17 54  1  0  0  0
 18 19  1  0  0  0
 18 55  1  0  0  0
 19 20  1  0  0  0
 19 21  2  0  0  0
 21 22  1  0  0  0
 23 24  1  0  0  0
 23 28  2  0  0  0
 24 25  2  0  0  0
 24 56  1  0  0  0
 25 26  1  0  0  0
 25 29  1  0  0  0
 26 27  2  0  0  0
 26 57  1  0  0  0
 27 28  1  0  0  0
 27 58  1  0  0  0
 29 30  2  0  0  0
 29 34  1  0  0  0
 30 31  1  0  0  0
 30 59  1  0  0  0
 31 32  2  0  0  0
 31 60  1  0  0  0
 32 33  1  0  0  0
 32 61  1  0  0  0
 33 34  2  0  0  0
 33 62  1  0  0  0
 34 35  1  0  0  0
 35 36  1  0  0  0
 35 63  1  0  0  0
 36 37  2  0  0  0
M  END
> <chembl_id>
CHEMBL4107051

> <chembl_pref_name>
None

> <i_m_ct_stereo_status>
1

> <s_m_source_file>
sdf/actives_sanitized.sdf

> <i_m_source_file_index>
161

> <i_lp_mmshare_version>
49012

> <i_f3d_flags>
0

> <s_epik_input>
bjFbY0hdW2NIXWMoW2NIXWMxMiljM2MoW2NIXVtjSF1bY0hdW2NIXTMpW05IXUMoPU8pW0NASF0oW0NIM10pW0NIMl1bQ0gyXVtDSDJdW0NAQEhdMk40W0NIMl1bQ0gyXUMoPVtDSF1DND1PKWM1YyhGKVtjSF1bY0hdYyhDbCljNUY=

> <s_epik_cmdline>
J2VwaWtfcHl0aG9uJywgJy1waHQnLCAnMC41JywgJy1waCcsICc3LjUnLCAnLW50JywgJy1tYScsICcyMDAnLCAnLWltYWUnLCAnPGluZmlsZS5tYWU+JywgJy1vbWFlJywgJzxvdXRmaWxlLm1hZT4n

> <r_lp_tautomer_probability>
1

> <r_epik_Ionization_Penalty>
  0.0001

> <r_epik_Ionization_Penalty_Charging>
  0.0000

> <r_epik_Ionization_Penalty_Neutral>
  0.0001

> <r_epik_State_Penalty>
 -0.0000

> <r_epik_Charging_Adjusted_Penalty>
0

> <i_epik_Tot_Q>
0

> <i_epik_Tot_abs_Q>
0

> <s_lp_Force_Field>
OPLS3e

> <r_lp_Energy>
94.237701

> <b_lp_Chiralities_Consistent>
1

> <s_lp_Variant>
sdf/actives_sanitized.sdf:161-1

$$$$
sdf/actives_sanitized.sdf:162
                    3D
 Schrodinger Suite 2020-1.
 81 85  0  0  1  0            999 V2000
   -5.0982    2.0298   -0.9321 C   0  0  0  0  0  0
   -4.0074    1.2014   -1.6409 C   0  0  2  0  0  0
   -2.5935    1.8281   -1.4630 C   0  0  0  0  0  0
   -1.9742    1.6613   -0.0501 C   0  0  0  0  0  0
   -0.4298    1.4985   -0.0366 C   0  0  0  0  0  0
    0.1094    0.0400   -0.2037 C   0  0  2  0  0  0
    1.5880   -0.0501   -0.1000 N   0  0  0  0  0  0
    2.4333    0.9821   -0.7736 C   0  0  0  0  0  0
    3.8522    0.4706   -1.1409 C   0  0  0  0  0  0
    4.4193   -0.2941    0.0386 C   0  0  0  0  0  0
    3.5787   -1.0302    0.7886 C   0  0  0  0  0  0
    2.1456   -1.0937    0.5983 C   0  0  0  0  0  0
    1.5061   -2.0471    1.0460 O   0  0  0  0  0  0
    5.8853   -0.4292    0.2103 C   0  0  0  0  0  0
    6.4968    0.2751    1.2606 C   0  0  0  0  0  0
    5.7457    1.0314    2.0985 F   0  0  0  0  0  0
    7.8792    0.2105    1.4519 C   0  0  0  0  0  0
    8.6279    1.0770    2.7461 Cl  0  0  0  0  0  0
    8.6658   -0.5535    0.5938 C   0  0  0  0  0  0
    8.0758   -1.2544   -0.4543 C   0  0  0  0  0  0
    6.6928   -1.1998   -0.6568 C   0  0  0  0  0  0
    6.1379   -1.9694   -1.7684 C   0  0  0  0  0  0
    5.6978   -2.5784   -2.6485 N   0  0  0  0  0  0
   -0.4610   -0.6512   -1.4470 C   0  0  0  0  0  0
   -1.6942   -1.3011   -1.3631 C   0  0  0  0  0  0
   -2.3432   -1.6883   -2.5387 C   0  0  0  0  0  0
   -1.6693   -1.5348   -3.7563 C   0  0  0  0  0  0
   -0.3927   -0.9686   -3.7530 C   0  0  0  0  0  0
    0.2075   -0.5100   -2.6250 N   0  0  0  0  0  0
   -3.7494   -2.1595   -2.4732 C   0  0  0  0  0  0
   -4.0290   -3.3700   -1.8300 C   0  0  0  0  0  0
   -5.3360   -3.8399   -1.7191 C   0  0  0  0  0  0
   -6.4001   -3.1029   -2.2401 C   0  0  0  0  0  0
   -7.6832   -3.6528   -2.0849 N   0  0  0  0  0  0
   -8.9239   -3.0476   -2.2585 C   0  0  0  0  0  0
   -9.1415   -1.8684   -2.5405 O   0  0  0  0  0  0
   -9.8870   -3.9852   -2.0429 O   0  0  0  0  0  0
  -11.3077   -3.7533   -2.0995 C   0  0  0  0  0  0
  -11.7525   -3.2890   -3.5090 C   0  0  0  0  0  0
  -11.7540   -2.7406   -1.0160 C   0  0  0  0  0  0
  -11.9330   -5.1309   -1.7985 C   0  0  0  0  0  0
   -6.1349   -1.8889   -2.8909 C   0  0  0  0  0  0
   -4.8260   -1.4074   -2.9933 C   0  0  0  0  0  0
   -4.6556   -0.1901   -3.6717 N   0  0  0  0  0  0
   -4.3392    1.0152   -3.1457 C   0  0  0  0  0  0
   -4.3080    2.0012   -3.8809 O   0  0  0  0  0  0
   -6.0806    1.5665   -1.0369 H   0  0  0  0  0  0
   -5.1677    3.0407   -1.3368 H   0  0  0  0  0  0
   -4.8959    2.1153    0.1360 H   0  0  0  0  0  0
   -4.0045    0.2265   -1.1587 H   0  0  0  0  0  0
   -1.9170    1.3970   -2.2003 H   0  0  0  0  0  0
   -2.6180    2.8881   -1.7227 H   0  0  0  0  0  0
   -2.2457    2.5370    0.5411 H   0  0  0  0  0  0
   -2.4241    0.8196    0.4774 H   0  0  0  0  0  0
   -0.0009    2.1658   -0.7844 H   0  0  0  0  0  0
   -0.0684    1.8712    0.9230 H   0  0  0  0  0  0
   -0.3061   -0.5024    0.6482 H   0  0  0  0  0  0
    1.9153    1.4648   -1.6022 H   0  0  0  0  0  0
    2.5724    1.7685   -0.0305 H   0  0  0  0  0  0
    3.7538   -0.2033   -1.9929 H   0  0  0  0  0  0
    4.5014    1.2935   -1.4415 H   0  0  0  0  0  0
    3.9900   -1.6485    1.5745 H   0  0  0  0  0  0
    9.7353   -0.6050    0.7376 H   0  0  0  0  0  0
    8.7085   -1.8413   -1.1063 H   0  0  0  0  0  0
   -2.2014   -1.3852   -0.4126 H   0  0  0  0  0  0
   -2.1330   -1.8291   -4.6865 H   0  0  0  0  0  0
    0.1528   -0.8366   -4.6757 H   0  0  0  0  0  0
   -3.2242   -3.9570   -1.4110 H   0  0  0  0  0  0
   -5.5139   -4.7809   -1.2181 H   0  0  0  0  0  0
   -7.7034   -4.6196   -1.7954 H   0  0  0  0  0  0
  -12.8395   -3.2586   -3.5925 H   0  0  0  0  0  0
  -11.3837   -3.9640   -4.2821 H   0  0  0  0  0  0
  -11.3861   -2.2915   -3.7509 H   0  0  0  0  0  0
  -11.3733   -1.7375   -1.2070 H   0  0  0  0  0  0
  -11.3991   -3.0368   -0.0281 H   0  0  0  0  0  0
  -12.8410   -2.6661   -0.9645 H   0  0  0  0  0  0
  -13.0229   -5.0883   -1.8083 H   0  0  0  0  0  0
  -11.6287   -5.5036   -0.8193 H   0  0  0  0  0  0
  -11.6279   -5.8776   -2.5333 H   0  0  0  0  0  0
   -6.9321   -1.3067   -3.3269 H   0  0  0  0  0  0
   -4.9185   -0.2012   -4.6464 H   0  0  0  0  0  0
  1  2  1  0  0  0
  1 47  1  0  0  0
  1 48  1  0  0  0
  1 49  1  0  0  0
  2  3  1  0  0  0
  2 45  1  0  0  0
  2 50  1  0  0  0
  3  4  1  0  0  0
  3 51  1  0  0  0
  3 52  1  0  0  0
  4  5  1  0  0  0
  4 53  1  0  0  0
  4 54  1  0  0  0
  5  6  1  0  0  0
  5 55  1  0  0  0
  5 56  1  0  0  0
  6  7  1  0  0  0
  6 24  1  0  0  0
  6 57  1  0  0  0
  7  8  1  0  0  0
  7 12  1  0  0  0
  8  9  1  0  0  0
  8 58  1  0  0  0
  8 59  1  0  0  0
  9 10  1  0  0  0
  9 60  1  0  0  0
  9 61  1  0  0  0
 10 11  2  0  0  0
 10 14  1  0  0  0
 11 12  1  0  0  0
 11 62  1  0  0  0
 12 13  2  0  0  0
 14 15  2  0  0  0
 14 21  1  0  0  0
 15 16  1  0  0  0
 15 17  1  0  0  0
 17 18  1  0  0  0
 17 19  2  0  0  0
 19 20  1  0  0  0
 19 63  1  0  0  0
 20 21  2  0  0  0
 20 64  1  0  0  0
 21 22  1  0  0  0
 22 23  3  0  0  0
 24 25  1  0  0  0
 24 29  2  0  0  0
 25 26  2  0  0  0
 25 65  1  0  0  0
 26 27  1  0  0  0
 26 30  1  0  0  0
 27 28  2  0  0  0
 27 66  1  0  0  0
 28 29  1  0  0  0
 28 67  1  0  0  0
 30 31  2  0  0  0
 30 43  1  0  0  0
 31 32  1  0  0  0
 31 68  1  0  0  0
 32 33  2  0  0  0
 32 69  1  0  0  0
 33 34  1  0  0  0
 33 42  1  0  0  0
 34 35  1  0  0  0
 34 70  1  0  0  0
 35 36  2  0  0  0
 35 37  1  0  0  0
 37 38  1  0  0  0
 38 39  1  0  0  0
 38 40  1  0  0  0
 38 41  1  0  0  0
 39 71  1  0  0  0
 39 72  1  0  0  0
 39 73  1  0  0  0
 40 74  1  0  0  0
 40 75  1  0  0  0
 40 76  1  0  0  0
 41 77  1  0  0  0
 41 78  1  0  0  0
 41 79  1  0  0  0
 42 43  2  0  0  0
 42 80  1  0  0  0
 43 44  1  0  0  0
 44 45  1  0  0  0
 44 81  1  0  0  0
 45 46  2  0  0  0
M  END
> <chembl_id>
CHEMBL4110473

> <chembl_pref_name>
None

> <i_m_ct_stereo_status>
1

> <s_m_source_file>
sdf/actives_sanitized.sdf

> <i_m_source_file_index>
162

> <i_lp_mmshare_version>
49012

> <i_f3d_flags>
0

> <s_epik_input>
W0NIM11DKFtDSDNdKShbQ0gzXSlPQyg9TylbTkhdYyhbY0hdW2NIXTEpW2NIXWMoYzFjKFtjSF1jMjMpW2NIXVtjSF1uMylbTkhdQyg9TylbQ0BIXShbQ0gzXSlbQ0gyXVtDSDJdW0NIMl1bQ0BASF0yTjRbQ0gyXVtDSDJdQyg9W0NIXUM0PU8pYzVjKEYpYyhDbClbY0hdW2NIXWM1QyNO

> <s_epik_cmdline>
J2VwaWtfcHl0aG9uJywgJy1waHQnLCAnMC41JywgJy1waCcsICc3LjUnLCAnLW50JywgJy1tYScsICcyMDAnLCAnLWltYWUnLCAnPGluZmlsZS5tYWU+JywgJy1vbWFlJywgJzxvdXRmaWxlLm1hZT4n

> <r_lp_tautomer_probability>
1

> <r_epik_Ionization_Penalty>
  0.0001

> <r_epik_Ionization_Penalty_Charging>
  0.0000

> <r_epik_Ionization_Penalty_Neutral>
  0.0001

> <r_epik_State_Penalty>
 -0.0000

> <r_epik_Charging_Adjusted_Penalty>
0

> <i_epik_Tot_Q>
0

> <i_epik_Tot_abs_Q>
0

> <s_epik_Chemistry_Notes>
This compound has an ester and may undergo hydrolysis at high or low pH.

> <s_lp_Force_Field>
OPLS3e

> <r_lp_Energy>
93.383427

> <b_lp_Chiralities_Consistent>
1

> <s_lp_Variant>
sdf/actives_sanitized.sdf:162-1

$$$$
sdf/actives_sanitized.sdf:163
                    3D
 Schrodinger Suite 2020-1.
 75 79  0  0  1  0            999 V2000
   -9.7114    2.8338   -6.1659 C   0  0  0  0  0  0
   -9.0243    1.7049   -5.6439 O   0  0  0  0  0  0
   -7.7131    1.7747   -5.3373 C   0  0  0  0  0  0
   -7.0186    2.7843   -5.4763 O   0  0  0  0  0  0
   -7.3143    0.5391   -4.8365 N   0  0  0  0  0  0
   -6.0452    0.1303   -4.3953 C   0  0  0  0  0  0
   -5.9868   -1.0688   -3.6820 C   0  0  0  0  0  0
   -4.7695   -1.5482   -3.2009 C   0  0  0  0  0  0
   -3.5825   -0.8450   -3.4269 C   0  0  0  0  0  0
   -3.6353    0.3556   -4.1639 C   0  0  0  0  0  0
   -2.4662    1.0343   -4.5385 N   0  0  0  0  0  0
   -1.9318    2.1362   -3.9691 C   0  0  0  0  0  0
   -0.9748    2.6872   -4.5124 O   0  0  0  0  0  0
   -2.4825    2.7245   -2.6413 C   0  0  2  0  0  0
   -3.4811    3.8609   -2.9466 C   0  0  0  0  0  0
   -1.3564    3.2343   -1.6806 C   0  0  0  0  0  0
   -0.2235    2.2396   -1.2999 C   0  0  0  0  0  0
   -0.4733    1.3798   -0.0317 C   0  0  0  0  0  0
    0.0717   -0.0879   -0.0787 C   0  0  2  0  0  0
    1.5563   -0.1240   -0.0280 N   0  0  0  0  0  0
    2.3371    0.2528   -1.2437 C   0  0  0  0  0  0
    3.7635   -0.3567   -1.2452 C   0  0  0  0  0  0
    4.4010   -0.1055    0.1077 C   0  0  0  0  0  0
    3.6145   -0.1293    1.2011 C   0  0  0  0  0  0
    2.1757   -0.2891    1.1883 C   0  0  0  0  0  0
    1.5886   -0.5980    2.2267 O   0  0  0  0  0  0
    5.8729   -0.1453    0.2430 C   0  0  0  0  0  0
    6.5002   -1.2594    0.8240 C   0  0  0  0  0  0
    5.7585   -2.2979    1.2810 F   0  0  0  0  0  0
    7.8913   -1.3108    0.9316 C   0  0  0  0  0  0
    8.6676   -2.6752    1.6542 Cl  0  0  0  0  0  0
    8.6638   -0.2567    0.4530 C   0  0  0  0  0  0
    8.0519    0.8454   -0.1382 C   0  0  0  0  0  0
    6.6533    0.9116   -0.2601 C   0  0  0  0  0  0
    5.9898    1.9863   -0.8286 O   0  0  0  0  0  0
    6.7203    2.9683   -1.5579 C   0  0  0  0  0  0
    7.3222    3.8267   -0.7335 F   0  0  0  0  0  0
    5.8731    3.6404   -2.3352 F   0  0  0  0  0  0
   -0.5550   -0.9598   -1.1899 C   0  0  0  0  0  0
    0.1135   -2.0543   -1.7633 C   0  0  0  0  0  0
   -0.4831   -2.7326   -2.8317 C   0  0  0  0  0  0
   -1.6799   -2.3711   -3.3657 N   0  0  0  0  0  0
   -2.3244   -1.3171   -2.8016 C   0  0  0  0  0  0
   -1.8142   -0.6361   -1.7011 C   0  0  0  0  0  0
   -4.8573    0.8319   -4.6501 C   0  0  0  0  0  0
  -10.7577    2.5821   -6.3385 H   0  0  0  0  0  0
   -9.2772    3.1522   -7.1147 H   0  0  0  0  0  0
   -9.6747    3.6723   -5.4688 H   0  0  0  0  0  0
   -8.0459   -0.1487   -4.7325 H   0  0  0  0  0  0
   -6.8877   -1.6317   -3.4823 H   0  0  0  0  0  0
   -4.7535   -2.4648   -2.6286 H   0  0  0  0  0  0
   -2.0001    0.6703   -5.3568 H   0  0  0  0  0  0
   -3.0492    1.9611   -2.1151 H   0  0  0  0  0  0
   -4.3172    3.5125   -3.5546 H   0  0  0  0  0  0
   -3.0072    4.6834   -3.4852 H   0  0  0  0  0  0
   -3.9041    4.2699   -2.0284 H   0  0  0  0  0  0
   -0.8844    4.1009   -2.1477 H   0  0  0  0  0  0
   -1.8058    3.6240   -0.7657 H   0  0  0  0  0  0
    0.0102    1.6041   -2.1522 H   0  0  0  0  0  0
    0.6899    2.8123   -1.1336 H   0  0  0  0  0  0
   -0.0353    1.8904    0.8275 H   0  0  0  0  0  0
   -1.5356    1.3652    0.2107 H   0  0  0  0  0  0
   -0.3152   -0.5660    0.8224 H   0  0  0  0  0  0
    1.7787    0.1268   -2.1710 H   0  0  0  0  0  0
    2.5037    1.3273   -1.1550 H   0  0  0  0  0  0
    3.6844   -1.4319   -1.4115 H   0  0  0  0  0  0
    4.3648    0.0538   -2.0572 H   0  0  0  0  0  0
    4.0806   -0.0557    2.1740 H   0  0  0  0  0  0
    9.7401   -0.2906    0.5379 H   0  0  0  0  0  0
    8.6845    1.6455   -0.4911 H   0  0  0  0  0  0
    7.4615    2.5346   -2.2311 H   0  0  0  0  0  0
    1.0818   -2.3696   -1.4030 H   0  0  0  0  0  0
    0.0135   -3.5733   -3.2932 H   0  0  0  0  0  0
   -2.3988    0.1598   -1.2781 H   0  0  0  0  0  0
   -4.8580    1.7340   -5.2421 H   0  0  0  0  0  0
  1  2  1  0  0  0
  1 46  1  0  0  0
  1 47  1  0  0  0
  1 48  1  0  0  0
  2  3  1  0  0  0
  3  4  2  0  0  0
  3  5  1  0  0  0
  5  6  1  0  0  0
  5 49  1  0  0  0
  6  7  2  0  0  0
  6 45  1  0  0  0
  7  8  1  0  0  0
  7 50  1  0  0  0
  8  9  2  0  0  0
  8 51  1  0  0  0
  9 10  1  0  0  0
  9 43  1  0  0  0
 10 11  1  0  0  0
 10 45  2  0  0  0
 11 12  1  0  0  0
 11 52  1  0  0  0
 12 13  2  0  0  0
 12 14  1  0  0  0
 14 15  1  0  0  0
 14 16  1  0  0  0
 14 53  1  0  0  0
 15 54  1  0  0  0
 15 55  1  0  0  0
 15 56  1  0  0  0
 16 17  1  0  0  0
 16 57  1  0  0  0
 16 58  1  0  0  0
 17 18  1  0  0  0
 17 59  1  0  0  0
 17 60  1  0  0  0
 18 19  1  0  0  0
 18 61  1  0  0  0
 18 62  1  0  0  0
 19 20  1  0  0  0
 19 39  1  0  0  0
 19 63  1  0  0  0
 20 21  1  0  0  0
 20 25  1  0  0  0
 21 22  1  0  0  0
 21 64  1  0  0  0
 21 65  1  0  0  0
 22 23  1  0  0  0
 22 66  1  0  0  0
 22 67  1  0  0  0
 23 24  2  0  0  0
 23 27  1  0  0  0
 24 25  1  0  0  0
 24 68  1  0  0  0
 25 26  2  0  0  0
 27 28  2  0  0  0
 27 34  1  0  0  0
 28 29  1  0  0  0
 28 30  1  0  0  0
 30 31  1  0  0  0
 30 32  2  0  0  0
 32 33  1  0  0  0
 32 69  1  0  0  0
 33 34  2  0  0  0
 33 70  1  0  0  0
 34 35  1  0  0  0
 35 36  1  0  0  0
 36 37  1  0  0  0
 36 38  1  0  0  0
 36 71  1  0  0  0
 39 40  1  0  0  0
 39 44  2  0  0  0
 40 41  2  0  0  0
 40 72  1  0  0  0
 41 42  1  0  0  0
 41 73  1  0  0  0
 42 43  2  0  0  0
 43 44  1  0  0  0
 44 74  1  0  0  0
 45 75  1  0  0  0
M  END
> <chembl_id>
CHEMBL4110926

> <chembl_pref_name>
None

> <i_m_ct_stereo_status>
1

> <s_m_source_file>
sdf/actives_sanitized.sdf

> <i_m_source_file_index>
163

> <i_lp_mmshare_version>
49012

> <i_f3d_flags>
0

> <s_epik_input>
W0NIM11PQyg9TylbTkhdYyhbY0hdW2NIXTEpW2NIXWMoYzEyKVtOSF1DKD1PKVtDQEhdKFtDSDNdKVtDSDJdW0NIMl1bQ0gyXVtDQEBIXShjM1tjSF1bY0hdbmMyW2NIXTMpTjRbQ0gyXVtDSDJdQyg9W0NIXUM0PU8pYzVjKEYpYyhDbClbY0hdW2NIXWM1T1tDSF0oRilG

> <s_epik_cmdline>
J2VwaWtfcHl0aG9uJywgJy1waHQnLCAnMC41JywgJy1waCcsICc3LjUnLCAnLW50JywgJy1tYScsICcyMDAnLCAnLWltYWUnLCAnPGluZmlsZS5tYWU+JywgJy1vbWFlJywgJzxvdXRmaWxlLm1hZT4n

> <r_lp_tautomer_probability>
1

> <r_epik_Ionization_Penalty>
  0.0020

> <r_epik_Ionization_Penalty_Charging>
  0.0000

> <r_epik_Ionization_Penalty_Neutral>
  0.0020

> <r_epik_State_Penalty>
 -0.0000

> <r_epik_Charging_Adjusted_Penalty>
0

> <i_epik_Tot_Q>
0

> <i_epik_Tot_abs_Q>
0

> <s_epik_Chemistry_Notes>
This compound has an ester and may undergo hydrolysis at high or low pH.

> <s_lp_Force_Field>
OPLS3e

> <r_lp_Energy>
96.16865

> <b_lp_Chiralities_Consistent>
1

> <s_lp_Variant>
sdf/actives_sanitized.sdf:163-1

$$$$
sdf/actives_sanitized.sdf:164
                    3D
 Schrodinger Suite 2020-1.
 75 79  0  0  1  0            999 V2000
  -11.3174   -1.4258   -4.4198 C   0  0  0  0  0  0
  -10.1291   -0.7486   -4.0334 O   0  0  0  0  0  0
   -8.9305   -1.3628   -4.1000 C   0  0  0  0  0  0
   -8.7652   -2.5227   -4.4839 O   0  0  0  0  0  0
   -7.9553   -0.4651   -3.6756 N   0  0  0  0  0  0
   -6.5647   -0.6387   -3.5676 C   0  0  0  0  0  0
   -5.8924   -1.8455   -3.8118 C   0  0  0  0  0  0
   -4.5056   -1.9150   -3.6914 C   0  0  0  0  0  0
   -3.7567   -0.7948   -3.3184 C   0  0  0  0  0  0
   -4.4334    0.4224   -3.0750 C   0  0  0  0  0  0
   -3.7283    1.6183   -2.8486 N   0  0  0  0  0  0
   -3.5698    2.2961   -1.6883 C   0  0  0  0  0  0
   -3.0070    3.3898   -1.7092 O   0  0  0  0  0  0
   -4.0789    1.7433   -0.3296 C   0  0  2  0  0  0
   -5.4495    2.3785   -0.0070 C   0  0  0  0  0  0
   -3.0844    1.9776    0.8626 C   0  0  0  0  0  0
   -1.8455    1.0470    0.9928 C   0  0  0  0  0  0
   -0.6328    1.3654    0.0747 C   0  0  0  0  0  0
    0.1932    0.1202   -0.4089 C   0  0  2  0  0  0
    1.6620    0.3456   -0.4051 N   0  0  0  0  0  0
    2.4945   -0.7238    0.2130 C   0  0  0  0  0  0
    3.8983   -0.2142    0.6317 C   0  0  0  0  0  0
    4.4973    0.5618   -0.5258 C   0  0  0  0  0  0
    3.6746    1.3014   -1.2946 C   0  0  0  0  0  0
    2.2315    1.3318   -1.1796 C   0  0  0  0  0  0
    1.5909    2.2235   -1.7378 O   0  0  0  0  0  0
    5.9643    0.7294   -0.6121 C   0  0  0  0  0  0
    6.5606    1.9603   -0.2933 C   0  0  0  0  0  0
    5.7930    3.0140    0.0773 F   0  0  0  0  0  0
    7.9480    2.1087   -0.3488 C   0  0  0  0  0  0
    8.6860    3.6233    0.0350 Cl  0  0  0  0  0  0
    8.7478    1.0301   -0.7147 C   0  0  0  0  0  0
    8.1671   -0.1981   -1.0186 C   0  0  0  0  0  0
    6.7733   -0.3672   -0.9620 C   0  0  0  0  0  0
    6.1412   -1.5615   -1.2647 O   0  0  0  0  0  0
    6.8981   -2.7659   -1.3393 C   0  0  0  0  0  0
    7.5152   -2.8717   -2.5166 F   0  0  0  0  0  0
    6.0710   -3.7992   -1.1917 F   0  0  0  0  0  0
   -0.3706   -0.5059   -1.7076 C   0  0  0  0  0  0
   -1.7477   -0.5479   -1.9043 C   0  0  0  0  0  0
   -2.2874   -0.9270   -3.1279 C   0  0  0  0  0  0
   -1.4111   -1.3875   -4.1170 C   0  0  0  0  0  0
   -0.0389   -1.3973   -3.8432 C   0  0  0  0  0  0
    0.4869   -0.9554   -2.6684 N   0  0  0  0  0  0
   -5.8249    0.4887   -3.2029 C   0  0  0  0  0  0
  -12.1760   -0.7656   -4.2974 H   0  0  0  0  0  0
  -11.4804   -2.3124   -3.8054 H   0  0  0  0  0  0
  -11.2717   -1.7321   -5.4660 H   0  0  0  0  0  0
   -8.2909    0.4496   -3.4119 H   0  0  0  0  0  0
   -6.4143   -2.7463   -4.0913 H   0  0  0  0  0  0
   -4.0115   -2.8587   -3.8724 H   0  0  0  0  0  0
   -3.2776    2.0086   -3.6633 H   0  0  0  0  0  0
   -4.2557    0.6712   -0.4131 H   0  0  0  0  0  0
   -6.1780    2.2011   -0.7985 H   0  0  0  0  0  0
   -5.3724    3.4587    0.1286 H   0  0  0  0  0  0
   -5.8718    1.9620    0.9081 H   0  0  0  0  0  0
   -2.7661    3.0208    0.9015 H   0  0  0  0  0  0
   -3.6487    1.8360    1.7860 H   0  0  0  0  0  0
   -1.4874    1.1105    2.0216 H   0  0  0  0  0  0
   -2.1637    0.0089    0.9052 H   0  0  0  0  0  0
   -0.9505    1.9361   -0.7964 H   0  0  0  0  0  0
    0.0138    2.0546    0.6210 H   0  0  0  0  0  0
    0.0156   -0.6493    0.3433 H   0  0  0  0  0  0
    1.9617   -1.2952    0.9735 H   0  0  0  0  0  0
    2.6903   -1.4322   -0.5941 H   0  0  0  0  0  0
    3.7875    0.4494    1.4904 H   0  0  0  0  0  0
    4.5386   -1.0418    0.9386 H   0  0  0  0  0  0
    4.1087    1.9369   -2.0541 H   0  0  0  0  0  0
    9.8212    1.1416   -0.7631 H   0  0  0  0  0  0
    8.8185   -1.0101   -1.3032 H   0  0  0  0  0  0
    7.6333   -2.8562   -0.5380 H   0  0  0  0  0  0
   -2.4232   -0.2337   -1.1372 H   0  0  0  0  0  0
   -1.7799   -1.7102   -5.0798 H   0  0  0  0  0  0
    0.6662   -1.7403   -4.5856 H   0  0  0  0  0  0
   -6.3289    1.4324   -3.0455 H   0  0  0  0  0  0
  1  2  1  0  0  0
  1 46  1  0  0  0
  1 47  1  0  0  0
  1 48  1  0  0  0
  2  3  1  0  0  0
  3  4  2  0  0  0
  3  5  1  0  0  0
  5  6  1  0  0  0
  5 49  1  0  0  0
  6  7  2  0  0  0
  6 45  1  0  0  0
  7  8  1  0  0  0
  7 50  1  0  0  0
  8  9  2  0  0  0
  8 51  1  0  0  0
  9 10  1  0  0  0
  9 41  1  0  0  0
 10 11  1  0  0  0
 10 45  2  0  0  0
 11 12  1  0  0  0
 11 52  1  0  0  0
 12 13  2  0  0  0
 12 14  1  0  0  0
 14 15  1  0  0  0
 14 16  1  0  0  0
 14 53  1  0  0  0
 15 54  1  0  0  0
 15 55  1  0  0  0
 15 56  1  0  0  0
 16 17  1  0  0  0
 16 57  1  0  0  0
 16 58  1  0  0  0
 17 18  1  0  0  0
 17 59  1  0  0  0
 17 60  1  0  0  0
 18 19  1  0  0  0
 18 61  1  0  0  0
 18 62  1  0  0  0
 19 20  1  0  0  0
 19 39  1  0  0  0
 19 63  1  0  0  0
 20 21  1  0  0  0
 20 25  1  0  0  0
 21 22  1  0  0  0
 21 64  1  0  0  0
 21 65  1  0  0  0
 22 23  1  0  0  0
 22 66  1  0  0  0
 22 67  1  0  0  0
 23 24  2  0  0  0
 23 27  1  0  0  0
 24 25  1  0  0  0
 24 68  1  0  0  0
 25 26  2  0  0  0
 27 28  2  0  0  0
 27 34  1  0  0  0
 28 29  1  0  0  0
 28 30  1  0  0  0
 30 31  1  0  0  0
 30 32  2  0  0  0
 32 33  1  0  0  0
 32 69  1  0  0  0
 33 34  2  0  0  0
 33 70  1  0  0  0
 34 35  1  0  0  0
 35 36  1  0  0  0
 36 37  1  0  0  0
 36 38  1  0  0  0
 36 71  1  0  0  0
 39 40  1  0  0  0
 39 44  2  0  0  0
 40 41  2  0  0  0
 40 72  1  0  0  0
 41 42  1  0  0  0
 42 43  2  0  0  0
 42 73  1  0  0  0
 43 44  1  0  0  0
 43 74  1  0  0  0
 45 75  1  0  0  0
M  END
> <chembl_id>
CHEMBL4113483

> <chembl_pref_name>
None

> <i_m_ct_stereo_status>
1

> <s_m_source_file>
sdf/actives_sanitized.sdf

> <i_m_source_file_index>
164

> <i_lp_mmshare_version>
49012

> <i_f3d_flags>
0

> <s_epik_input>
W0NIM11PQyg9TylbTkhdYyhbY0hdW2NIXTEpW2NIXWMoYzEyKVtOSF1DKD1PKVtDQEhdKFtDSDNdKVtDSDJdW0NIMl1bQ0gyXVtDQEBIXShjM1tjSF1jMltjSF1bY0hdbjMpTjRbQ0gyXVtDSDJdQyg9W0NIXUM0PU8pYzVjKEYpYyhDbClbY0hdW2NIXWM1T1tDSF0oRilG

> <s_epik_cmdline>
J2VwaWtfcHl0aG9uJywgJy1waHQnLCAnMC41JywgJy1waCcsICc3LjUnLCAnLW50JywgJy1tYScsICcyMDAnLCAnLWltYWUnLCAnPGluZmlsZS5tYWU+JywgJy1vbWFlJywgJzxvdXRmaWxlLm1hZT4n

> <r_lp_tautomer_probability>
1

> <r_epik_Ionization_Penalty>
  0.0001

> <r_epik_Ionization_Penalty_Charging>
  0.0000

> <r_epik_Ionization_Penalty_Neutral>
  0.0001

> <r_epik_State_Penalty>
 -0.0000

> <r_epik_Charging_Adjusted_Penalty>
0

> <i_epik_Tot_Q>
0

> <i_epik_Tot_abs_Q>
0

> <s_epik_Chemistry_Notes>
This compound has an ester and may undergo hydrolysis at high or low pH.

> <s_lp_Force_Field>
OPLS3e

> <r_lp_Energy>
96.083224

> <b_lp_Chiralities_Consistent>
1

> <s_lp_Variant>
sdf/actives_sanitized.sdf:164-1

$$$$
sdf/actives_sanitized.sdf:165
                    3D
 Schrodinger Suite 2020-1.
 63 67  0  0  1  0            999 V2000
   -5.2625    1.7207   -0.7880 C   0  0  0  0  0  0
   -4.1443    0.9613   -1.5312 C   0  0  2  0  0  0
   -2.7691    1.6819   -1.4045 C   0  0  0  0  0  0
   -2.0968    1.5792   -0.0095 C   0  0  0  0  0  0
   -0.5458    1.4901   -0.0391 C   0  0  0  0  0  0
    0.0474    0.0520   -0.1923 C   0  0  2  0  0  0
    1.5281    0.0019   -0.0946 N   0  0  0  0  0  0
    2.3461    1.0811   -0.7262 C   0  0  0  0  0  0
    3.7854    0.6322   -1.1004 C   0  0  0  0  0  0
    4.3639   -0.1779    0.0405 C   0  0  0  0  0  0
    3.5418   -0.9779    0.7430 C   0  0  0  0  0  0
    2.1109   -1.0614    0.5516 C   0  0  0  0  0  0
    1.4931   -2.0482    0.9562 O   0  0  0  0  0  0
    5.8245   -0.3119    0.1852 C   0  0  0  0  0  0
    6.5333    0.5074    1.0787 C   0  0  0  0  0  0
    5.6439    1.8225    2.1387 Br  0  0  0  0  0  0
    7.9159    0.3716    1.2079 C   0  0  0  0  0  0
    8.6027   -0.5746    0.4506 C   0  0  0  0  0  0
    7.9096   -1.3914   -0.4416 C   0  0  0  0  0  0
    8.7770   -2.5582   -1.3756 Cl  0  0  0  0  0  0
    6.5239   -1.2617   -0.5752 C   0  0  0  0  0  0
    5.8575   -2.0597   -1.4449 F   0  0  0  0  0  0
   -0.5076   -0.6708   -1.4224 C   0  0  0  0  0  0
   -1.6933   -1.3984   -1.3080 C   0  0  0  0  0  0
   -2.3486   -1.8206   -2.4673 C   0  0  0  0  0  0
   -1.7215   -1.6162   -3.7026 C   0  0  0  0  0  0
   -0.4856   -0.9663   -3.7312 C   0  0  0  0  0  0
    0.1164   -0.4765   -2.6170 N   0  0  0  0  0  0
   -3.7179   -2.3835   -2.3644 C   0  0  0  0  0  0
   -3.8974   -3.6119   -1.7158 C   0  0  0  0  0  0
   -5.1660   -4.1728   -1.5786 C   0  0  0  0  0  0
   -6.2794   -3.5083   -2.0859 C   0  0  0  0  0  0
   -6.1248   -2.2802   -2.7253 C   0  0  0  0  0  0
   -4.8569   -1.7040   -2.8546 C   0  0  0  0  0  0
   -4.7910   -0.4759   -3.5326 N   0  0  0  0  0  0
   -4.5172    0.7468   -3.0225 C   0  0  0  0  0  0
   -4.5650    1.7285   -3.7627 O   0  0  0  0  0  0
   -6.2146    1.1916   -0.8536 H   0  0  0  0  0  0
   -5.4146    2.7210   -1.1966 H   0  0  0  0  0  0
   -5.0280    1.8298    0.2712 H   0  0  0  0  0  0
   -4.0613   -0.0092   -1.0474 H   0  0  0  0  0  0
   -2.0888    1.2866   -2.1578 H   0  0  0  0  0  0
   -2.8721    2.7340   -1.6766 H   0  0  0  0  0  0
   -2.3918    2.4550    0.5704 H   0  0  0  0  0  0
   -2.4898    0.7298    0.5504 H   0  0  0  0  0  0
   -0.1678    2.1583   -0.8134 H   0  0  0  0  0  0
   -0.1752    1.8989    0.9021 H   0  0  0  0  0  0
   -0.3429   -0.4911    0.6712 H   0  0  0  0  0  0
    1.8185    1.5780   -1.5401 H   0  0  0  0  0  0
    2.4534    1.8447    0.0454 H   0  0  0  0  0  0
    3.7278    0.0001   -1.9879 H   0  0  0  0  0  0
    4.4129    1.4889   -1.3481 H   0  0  0  0  0  0
    3.9687   -1.6357    1.4875 H   0  0  0  0  0  0
    8.4587    1.0015    1.8973 H   0  0  0  0  0  0
    9.6732   -0.6720    0.5574 H   0  0  0  0  0  0
   -2.1668   -1.5179   -0.3439 H   0  0  0  0  0  0
   -2.1915   -1.9353   -4.6215 H   0  0  0  0  0  0
    0.0222   -0.7924   -4.6683 H   0  0  0  0  0  0
   -3.0440   -4.1416   -1.3169 H   0  0  0  0  0  0
   -5.2846   -5.1239   -1.0809 H   0  0  0  0  0  0
   -7.2624   -3.9445   -1.9837 H   0  0  0  0  0  0
   -6.9982   -1.7754   -3.1136 H   0  0  0  0  0  0
   -5.0971   -0.5020   -4.4942 H   0  0  0  0  0  0
  1  2  1  0  0  0
  1 38  1  0  0  0
  1 39  1  0  0  0
  1 40  1  0  0  0
  2  3  1  0  0  0
  2 36  1  0  0  0
  2 41  1  0  0  0
  3  4  1  0  0  0
  3 42  1  0  0  0
  3 43  1  0  0  0
  4  5  1  0  0  0
  4 44  1  0  0  0
  4 45  1  0  0  0
  5  6  1  0  0  0
  5 46  1  0  0  0
  5 47  1  0  0  0
  6  7  1  0  0  0
  6 23  1  0  0  0
  6 48  1  0  0  0
  7  8  1  0  0  0
  7 12  1  0  0  0
  8  9  1  0  0  0
  8 49  1  0  0  0
  8 50  1  0  0  0
  9 10  1  0  0  0
  9 51  1  0  0  0
  9 52  1  0  0  0
 10 11  2  0  0  0
 10 14  1  0  0  0
 11 12  1  0  0  0
 11 53  1  0  0  0
 12 13  2  0  0  0
 14 15  2  0  0  0
 14 21  1  0  0  0
 15 16  1  0  0  0
 15 17  1  0  0  0
 17 18  2  0  0  0
 17 54  1  0  0  0
 18 19  1  0  0  0
 18 55  1  0  0  0
 19 20  1  0  0  0
 19 21  2  0  0  0
 21 22  1  0  0  0
 23 24  1  0  0  0
 23 28  2  0  0  0
 24 25  2  0  0  0
 24 56  1  0  0  0
 25 26  1  0  0  0
 25 29  1  0  0  0
 26 27  2  0  0  0
 26 57  1  0  0  0
 27 28  1  0  0  0
 27 58  1  0  0  0
 29 30  2  0  0  0
 29 34  1  0  0  0
 30 31  1  0  0  0
 30 59  1  0  0  0
 31 32  2  0  0  0
 31 60  1  0  0  0
 32 33  1  0  0  0
 32 61  1  0  0  0
 33 34  2  0  0  0
 33 62  1  0  0  0
 34 35  1  0  0  0
 35 36  1  0  0  0
 35 63  1  0  0  0
 36 37  2  0  0  0
M  END
> <chembl_id>
CHEMBL4109436

> <chembl_pref_name>
None

> <i_m_ct_stereo_status>
1

> <s_m_source_file>
sdf/actives_sanitized.sdf

> <i_m_source_file_index>
165

> <i_lp_mmshare_version>
49012

> <i_f3d_flags>
0

> <s_epik_input>
bjFbY0hdW2NIXWMoW2NIXWMxMiljM2MoW2NIXVtjSF1bY0hdW2NIXTMpW05IXUMoPU8pW0NASF0oW0NIM10pW0NIMl1bQ0gyXVtDSDJdW0NAQEhdMk40W0NIMl1bQ0gyXUMoPVtDSF1DND1PKWM1YyhCcilbY0hdW2NIXWMoQ2wpYzVG

> <s_epik_cmdline>
J2VwaWtfcHl0aG9uJywgJy1waHQnLCAnMC41JywgJy1waCcsICc3LjUnLCAnLW50JywgJy1tYScsICcyMDAnLCAnLWltYWUnLCAnPGluZmlsZS5tYWU+JywgJy1vbWFlJywgJzxvdXRmaWxlLm1hZT4n

> <r_lp_tautomer_probability>
1

> <r_epik_Ionization_Penalty>
  0.0001

> <r_epik_Ionization_Penalty_Charging>
  0.0000

> <r_epik_Ionization_Penalty_Neutral>
  0.0001

> <r_epik_State_Penalty>
 -0.0000

> <r_epik_Charging_Adjusted_Penalty>
0

> <i_epik_Tot_Q>
0

> <i_epik_Tot_abs_Q>
0

> <s_lp_Force_Field>
OPLS3e

> <r_lp_Energy>
86.562581

> <b_lp_Chiralities_Consistent>
1

> <s_lp_Variant>
sdf/actives_sanitized.sdf:165-1

$$$$
sdf/actives_sanitized.sdf:166
                    3D
 Schrodinger Suite 2020-1.
 68 72  0  0  1  0            999 V2000
   -9.6426   -0.7961   -0.5790 C   0  0  0  0  0  0
   -8.4806   -1.0787    0.3957 C   0  0  2  0  0  0
   -7.1665   -1.4380   -0.3589 C   0  0  0  0  0  0
   -6.4605   -0.2448   -1.0566 C   0  0  0  0  0  0
   -4.9093   -0.3262   -1.0717 C   0  0  0  0  0  0
   -4.1829    0.2593    0.1830 C   0  0  2  0  0  0
   -2.7023    0.2438    0.0708 N   0  0  0  0  0  0
   -2.0256   -0.9465   -0.5273 C   0  0  0  0  0  0
   -0.5591   -1.1337   -0.0526 C   0  0  0  0  0  0
    0.1422    0.2098   -0.0490 C   0  0  0  0  0  0
   -0.5676    1.2988    0.2985 C   0  0  0  0  0  0
   -1.9897    1.3101    0.5633 C   0  0  0  0  0  0
   -2.4882    2.2403    1.1996 O   0  0  0  0  0  0
    1.6207    0.2751   -0.0785 C   0  0  0  0  0  0
    2.3068    0.0494    1.1279 C   0  0  0  0  0  0
    1.6163   -0.2245    2.2623 F   0  0  0  0  0  0
    3.7002    0.1088    1.1791 C   0  0  0  0  0  0
    4.5389   -0.1683    2.6645 Cl  0  0  0  0  0  0
    4.4244    0.4002    0.0285 C   0  0  0  0  0  0
    3.7609    0.6239   -1.1737 C   0  0  0  0  0  0
    2.3625    0.5434   -1.2568 C   0  0  0  0  0  0
    1.7444    0.8551   -2.5896 C   0  0  0  0  0  0
    2.2271    1.6559   -3.3911 O   0  0  0  0  0  0
    0.6096   -0.0442   -3.0778 C   0  0  0  0  0  0
   -4.7024   -0.3512    1.4880 C   0  0  0  0  0  0
   -5.8214    0.2096    2.1064 C   0  0  0  0  0  0
   -6.4604   -0.4960    3.1292 C   0  0  0  0  0  0
   -5.8748   -1.6808    3.5920 C   0  0  0  0  0  0
   -4.6971   -2.1296    2.9902 C   0  0  0  0  0  0
   -4.1184   -1.4957    1.9387 N   0  0  0  0  0  0
   -7.7744   -0.0212    3.6290 C   0  0  0  0  0  0
   -7.8354    1.1954    4.3205 C   0  0  0  0  0  0
   -9.0483    1.6915    4.7954 C   0  0  0  0  0  0
  -10.2239    0.9766    4.5819 C   0  0  0  0  0  0
  -10.1877   -0.2301    3.8866 C   0  0  0  0  0  0
   -8.9768   -0.7270    3.3933 C   0  0  0  0  0  0
   -9.0298   -1.9594    2.7223 N   0  0  0  0  0  0
   -8.8602   -2.1985    1.4016 C   0  0  0  0  0  0
   -9.0112   -3.3432    0.9762 O   0  0  0  0  0  0
  -10.5496   -0.5092   -0.0449 H   0  0  0  0  0  0
   -9.8830   -1.6692   -1.1875 H   0  0  0  0  0  0
   -9.3974    0.0208   -1.2585 H   0  0  0  0  0  0
   -8.3118   -0.1555    0.9455 H   0  0  0  0  0  0
   -6.4715   -1.9058    0.3377 H   0  0  0  0  0  0
   -7.3601   -2.2201   -1.0952 H   0  0  0  0  0  0
   -6.8243   -0.1935   -2.0839 H   0  0  0  0  0  0
   -6.7616    0.7026   -0.6082 H   0  0  0  0  0  0
   -4.6125   -1.3594   -1.2538 H   0  0  0  0  0  0
   -4.5594    0.2325   -1.9411 H   0  0  0  0  0  0
   -4.4891    1.3073    0.2053 H   0  0  0  0  0  0
   -2.6299   -1.8494   -0.4414 H   0  0  0  0  0  0
   -1.9853   -0.7428   -1.5976 H   0  0  0  0  0  0
   -0.5804   -1.5189    0.9680 H   0  0  0  0  0  0
   -0.0347   -1.8688   -0.6632 H   0  0  0  0  0  0
   -0.0468    2.2381    0.4242 H   0  0  0  0  0  0
    5.5027    0.4567    0.0644 H   0  0  0  0  0  0
    4.3555    0.8542   -2.0473 H   0  0  0  0  0  0
    0.7440   -1.0619   -2.7122 H   0  0  0  0  0  0
    0.6021   -0.0930   -4.1672 H   0  0  0  0  0  0
   -0.3540    0.3341   -2.7386 H   0  0  0  0  0  0
   -6.2656    1.1124    1.7121 H   0  0  0  0  0  0
   -6.3327   -2.2513    4.3869 H   0  0  0  0  0  0
   -4.2210   -3.0399    3.3234 H   0  0  0  0  0  0
   -6.9323    1.7619    4.4973 H   0  0  0  0  0  0
   -9.0754    2.6290    5.3311 H   0  0  0  0  0  0
  -11.1633    1.3580    4.9543 H   0  0  0  0  0  0
  -11.1084   -0.7733    3.7274 H   0  0  0  0  0  0
   -9.3461   -2.7377    3.2822 H   0  0  0  0  0  0
  1  2  1  0  0  0
  1 40  1  0  0  0
  1 41  1  0  0  0
  1 42  1  0  0  0
  2  3  1  0  0  0
  2 38  1  0  0  0
  2 43  1  0  0  0
  3  4  1  0  0  0
  3 44  1  0  0  0
  3 45  1  0  0  0
  4  5  1  0  0  0
  4 46  1  0  0  0
  4 47  1  0  0  0
  5  6  1  0  0  0
  5 48  1  0  0  0
  5 49  1  0  0  0
  6  7  1  0  0  0
  6 25  1  0  0  0
  6 50  1  0  0  0
  7  8  1  0  0  0
  7 12  1  0  0  0
  8  9  1  0  0  0
  8 51  1  0  0  0
  8 52  1  0  0  0
  9 10  1  0  0  0
  9 53  1  0  0  0
  9 54  1  0  0  0
 10 11  2  0  0  0
 10 14  1  0  0  0
 11 12  1  0  0  0
 11 55  1  0  0  0
 12 13  2  0  0  0
 14 15  2  0  0  0
 14 21  1  0  0  0
 15 16  1  0  0  0
 15 17  1  0  0  0
 17 18  1  0  0  0
 17 19  2  0  0  0
 19 20  1  0  0  0
 19 56  1  0  0  0
 20 21  2  0  0  0
 20 57  1  0  0  0
 21 22  1  0  0  0
 22 23  2  0  0  0
 22 24  1  0  0  0
 24 58  1  0  0  0
 24 59  1  0  0  0
 24 60  1  0  0  0
 25 26  1  0  0  0
 25 30  2  0  0  0
 26 27  2  0  0  0
 26 61  1  0  0  0
 27 28  1  0  0  0
 27 31  1  0  0  0
 28 29  2  0  0  0
 28 62  1  0  0  0
 29 30  1  0  0  0
 29 63  1  0  0  0
 31 32  2  0  0  0
 31 36  1  0  0  0
 32 33  1  0  0  0
 32 64  1  0  0  0
 33 34  2  0  0  0
 33 65  1  0  0  0
 34 35  1  0  0  0
 34 66  1  0  0  0
 35 36  2  0  0  0
 35 67  1  0  0  0
 36 37  1  0  0  0
 37 38  1  0  0  0
 37 68  1  0  0  0
 38 39  2  0  0  0
M  END
> <chembl_id>
CHEMBL4109066

> <chembl_pref_name>
None

> <i_m_ct_stereo_status>
1

> <s_m_source_file>
sdf/actives_sanitized.sdf

> <i_m_source_file_index>
166

> <i_lp_mmshare_version>
49012

> <i_f3d_flags>
0

> <s_epik_input>
bjFbY0hdW2NIXWMoW2NIXWMxMiljM2MoW2NIXVtjSF1bY0hdW2NIXTMpW05IXUMoPU8pW0NASF0oW0NIM10pW0NIMl1bQ0gyXVtDSDJdW0NAQEhdMk40W0NIMl1bQ0gyXUMoPVtDSF1DND1PKWM1YyhGKWMoQ2wpW2NIXVtjSF1jNUMoPU8pW0NIM10=

> <s_epik_cmdline>
J2VwaWtfcHl0aG9uJywgJy1waHQnLCAnMC41JywgJy1waCcsICc3LjUnLCAnLW50JywgJy1tYScsICcyMDAnLCAnLWltYWUnLCAnPGluZmlsZS5tYWU+JywgJy1vbWFlJywgJzxvdXRmaWxlLm1hZT4n

> <r_lp_tautomer_probability>
1

> <r_epik_Ionization_Penalty>
  0.0001

> <r_epik_Ionization_Penalty_Charging>
  0.0000

> <r_epik_Ionization_Penalty_Neutral>
  0.0001

> <r_epik_State_Penalty>
 -0.0000

> <r_epik_Charging_Adjusted_Penalty>
0

> <i_epik_Tot_Q>
0

> <i_epik_Tot_abs_Q>
0

> <s_lp_Force_Field>
OPLS3e

> <r_lp_Energy>
94.356463

> <b_lp_Chiralities_Consistent>
1

> <s_lp_Variant>
sdf/actives_sanitized.sdf:166-1

$$$$
sdf/actives_sanitized.sdf:167
                    3D
 Schrodinger Suite 2020-1.
 70 75  0  0  1  0            999 V2000
   -4.8831    3.3258   -1.7127 C   0  0  0  0  0  0
   -3.7168    2.3548   -1.4228 C   0  0  2  0  0  0
   -2.7934    2.9470   -0.3009 C   0  0  0  0  0  0
   -1.8708    1.9763    0.4874 C   0  0  0  0  0  0
   -0.5501    1.5483   -0.2102 C   0  0  0  0  0  0
   -0.0590    0.0955    0.1130 C   0  0  2  0  0  0
    1.4184    0.0300    0.2495 N   0  0  0  0  0  0
    2.2613    0.5603   -0.8632 C   0  0  0  0  0  0
    3.6896    0.9375   -0.3914 C   0  0  0  0  0  0
    4.2439   -0.2135    0.4252 C   0  0  0  0  0  0
    3.4007   -0.8995    1.2203 C   0  0  0  0  0  0
    1.9672   -0.7031    1.2748 C   0  0  0  0  0  0
    1.3223   -1.1546    2.2226 O   0  0  0  0  0  0
    5.7033   -0.3689    0.5873 C   0  0  0  0  0  0
    6.3544    0.2741    1.6520 C   0  0  0  0  0  0
    5.6429    1.0205    2.5320 F   0  0  0  0  0  0
    7.7369    0.1531    1.8131 C   0  0  0  0  0  0
    8.5410    0.9400    3.1246 Cl  0  0  0  0  0  0
    8.4780   -0.6081    0.9124 C   0  0  0  0  0  0
    7.8428   -1.2446   -0.1507 C   0  0  0  0  0  0
    6.4607   -1.1231   -0.3303 C   0  0  0  0  0  0
    5.7916   -1.8590   -1.4890 C   0  0  0  0  0  0
    6.4665   -2.0956   -2.8247 C   0  0  0  0  0  0
    5.3034   -1.1384   -2.7259 C   0  0  0  0  0  0
   -0.6519   -0.9521   -0.8593 C   0  0  0  0  0  0
   -1.9810   -0.8390   -1.2591 C   0  0  0  0  0  0
   -2.4922   -1.6356   -2.2778 C   0  0  0  0  0  0
   -1.6743   -2.6443   -2.7987 C   0  0  0  0  0  0
   -0.3686   -2.7640   -2.3107 C   0  0  0  0  0  0
    0.1522   -1.9274   -1.3724 N   0  0  0  0  0  0
   -3.8598   -1.3378   -2.7787 C   0  0  0  0  0  0
   -4.8485   -2.3275   -2.7273 C   0  0  0  0  0  0
   -6.1584   -2.0494   -3.1165 C   0  0  0  0  0  0
   -6.4973   -0.7762   -3.5695 C   0  0  0  0  0  0
   -5.5242    0.2181   -3.6474 C   0  0  0  0  0  0
   -4.2091   -0.0516   -3.2532 C   0  0  0  0  0  0
   -3.2284    0.9315   -3.4751 N   0  0  0  0  0  0
   -2.9724    2.0435   -2.7488 C   0  0  0  0  0  0
   -2.1239    2.8374   -3.1533 O   0  0  0  0  0  0
   -5.5684    2.9294   -2.4622 H   0  0  0  0  0  0
   -4.5248    4.2902   -2.0768 H   0  0  0  0  0  0
   -5.4737    3.5121   -0.8150 H   0  0  0  0  0  0
   -4.1703    1.4426   -1.0359 H   0  0  0  0  0  0
   -2.2066    3.7840   -0.6835 H   0  0  0  0  0  0
   -3.4455    3.3984    0.4489 H   0  0  0  0  0  0
   -1.5898    2.4683    1.4201 H   0  0  0  0  0  0
   -2.4525    1.1205    0.8263 H   0  0  0  0  0  0
   -0.6270    1.6630   -1.2901 H   0  0  0  0  0  0
    0.2108    2.2750    0.0802 H   0  0  0  0  0  0
   -0.5065   -0.1540    1.0763 H   0  0  0  0  0  0
    2.4108   -0.2869   -1.5346 H   0  0  0  0  0  0
    1.7579    1.3124   -1.4701 H   0  0  0  0  0  0
    4.3322    1.1857   -1.2352 H   0  0  0  0  0  0
    3.6232    1.8261    0.2381 H   0  0  0  0  0  0
    3.8104   -1.6449    1.8879 H   0  0  0  0  0  0
    9.5463   -0.7093    1.0360 H   0  0  0  0  0  0
    8.4339   -1.8385   -0.8324 H   0  0  0  0  0  0
    5.1567   -2.6768   -1.1452 H   0  0  0  0  0  0
    7.4630   -1.6900   -3.0012 H   0  0  0  0  0  0
    6.3201   -3.0593   -3.3131 H   0  0  0  0  0  0
    5.4975   -0.0705   -2.8267 H   0  0  0  0  0  0
    4.3372   -1.4255   -3.1414 H   0  0  0  0  0  0
   -2.6226   -0.0919   -0.8395 H   0  0  0  0  0  0
   -2.0305   -3.3013   -3.5788 H   0  0  0  0  0  0
    0.2942   -3.5248   -2.6958 H   0  0  0  0  0  0
   -4.6072   -3.3157   -2.3627 H   0  0  0  0  0  0
   -6.9120   -2.8213   -3.0633 H   0  0  0  0  0  0
   -7.5109   -0.5643   -3.8763 H   0  0  0  0  0  0
   -5.7912    1.1891   -4.0388 H   0  0  0  0  0  0
   -2.6286    0.7633   -4.2697 H   0  0  0  0  0  0
  1  2  1  0  0  0
  1 40  1  0  0  0
  1 41  1  0  0  0
  1 42  1  0  0  0
  2  3  1  0  0  0
  2 38  1  0  0  0
  2 43  1  0  0  0
  3  4  1  0  0  0
  3 44  1  0  0  0
  3 45  1  0  0  0
  4  5  1  0  0  0
  4 46  1  0  0  0
  4 47  1  0  0  0
  5  6  1  0  0  0
  5 48  1  0  0  0
  5 49  1  0  0  0
  6  7  1  0  0  0
  6 25  1  0  0  0
  6 50  1  0  0  0
  7  8  1  0  0  0
  7 12  1  0  0  0
  8  9  1  0  0  0
  8 51  1  0  0  0
  8 52  1  0  0  0
  9 10  1  0  0  0
  9 53  1  0  0  0
  9 54  1  0  0  0
 10 11  2  0  0  0
 10 14  1  0  0  0
 11 12  1  0  0  0
 11 55  1  0  0  0
 12 13  2  0  0  0
 14 15  2  0  0  0
 14 21  1  0  0  0
 15 16  1  0  0  0
 15 17  1  0  0  0
 17 18  1  0  0  0
 17 19  2  0  0  0
 19 20  1  0  0  0
 19 56  1  0  0  0
 20 21  2  0  0  0
 20 57  1  0  0  0
 21 22  1  0  0  0
 22 23  1  0  0  0
 22 24  1  0  0  0
 22 58  1  0  0  0
 23 24  1  0  0  0
 23 59  1  0  0  0
 23 60  1  0  0  0
 24 61  1  0  0  0
 24 62  1  0  0  0
 25 26  1  0  0  0
 25 30  2  0  0  0
 26 27  2  0  0  0
 26 63  1  0  0  0
 27 28  1  0  0  0
 27 31  1  0  0  0
 28 29  2  0  0  0
 28 64  1  0  0  0
 29 30  1  0  0  0
 29 65  1  0  0  0
 31 32  2  0  0  0
 31 36  1  0  0  0
 32 33  1  0  0  0
 32 66  1  0  0  0
 33 34  2  0  0  0
 33 67  1  0  0  0
 34 35  1  0  0  0
 34 68  1  0  0  0
 35 36  2  0  0  0
 35 69  1  0  0  0
 36 37  1  0  0  0
 37 38  1  0  0  0
 37 70  1  0  0  0
 38 39  2  0  0  0
M  END
> <chembl_id>
CHEMBL4111484

> <chembl_pref_name>
None

> <i_m_ct_stereo_status>
1

> <s_m_source_file>
sdf/actives_sanitized.sdf

> <i_m_source_file_index>
167

> <i_lp_mmshare_version>
49012

> <i_f3d_flags>
0

> <s_epik_input>
bjFbY0hdW2NIXWMoW2NIXWMxMiljM2MoW2NIXVtjSF1bY0hdW2NIXTMpW05IXUMoPU8pW0NASF0oW0NIM10pW0NIMl1bQ0gyXVtDSDJdW0NAQEhdMk40W0NIMl1bQ0gyXUMoPVtDSF1DND1PKWM1YyhGKWMoQ2wpW2NIXVtjSF1jNVtDSF02W0NIMl1bQ0gyXTY=

> <s_epik_cmdline>
J2VwaWtfcHl0aG9uJywgJy1waHQnLCAnMC41JywgJy1waCcsICc3LjUnLCAnLW50JywgJy1tYScsICcyMDAnLCAnLWltYWUnLCAnPGluZmlsZS5tYWU+JywgJy1vbWFlJywgJzxvdXRmaWxlLm1hZT4n

> <r_lp_tautomer_probability>
1

> <r_epik_Ionization_Penalty>
  0.0001

> <r_epik_Ionization_Penalty_Charging>
  0.0000

> <r_epik_Ionization_Penalty_Neutral>
  0.0001

> <r_epik_State_Penalty>
 -0.0000

> <r_epik_Charging_Adjusted_Penalty>
0

> <i_epik_Tot_Q>
0

> <i_epik_Tot_abs_Q>
0

> <s_lp_Force_Field>
OPLS3e

> <r_lp_Energy>
94.463453

> <b_lp_Chiralities_Consistent>
1

> <s_lp_Variant>
sdf/actives_sanitized.sdf:167-1

$$$$
sdf/actives_sanitized.sdf:168
                    3D
 Schrodinger Suite 2020-1.
 63 67  0  0  1  0            999 V2000
   -5.3526    0.2051    0.9690 C   0  0  0  0  0  0
   -4.2062    0.2509   -0.0629 C   0  0  2  0  0  0
   -3.1451    1.3356    0.3381 C   0  0  0  0  0  0
   -2.1544    1.8648   -0.7429 C   0  0  0  0  0  0
   -0.6377    1.7661   -0.4155 C   0  0  0  0  0  0
   -0.0511    0.3228   -0.3462 C   0  0  2  0  0  0
    1.4173    0.2480   -0.1454 N   0  0  0  0  0  0
    2.3295    1.0646   -0.9995 C   0  0  0  0  0  0
    3.7078    1.2972   -0.3273 C   0  0  0  0  0  0
    4.2449   -0.0379    0.1608 C   0  0  0  0  0  0
    3.3561   -0.9361    0.6324 C   0  0  0  0  0  0
    1.9171   -0.7709    0.6330 C   0  0  0  0  0  0
    1.2231   -1.4996    1.3450 O   0  0  0  0  0  0
    5.6997   -0.2383    0.3840 C   0  0  0  0  0  0
    6.4823    0.7492    1.0083 C   0  0  0  0  0  0
    5.9282    1.9034    1.4478 F   0  0  0  0  0  0
    7.8488    0.5527    1.2063 C   0  0  0  0  0  0
    8.4561   -0.6271    0.7869 C   0  0  0  0  0  0
    7.6979   -1.6163    0.1648 C   0  0  0  0  0  0
    8.4668   -3.0736   -0.3557 Cl  0  0  0  0  0  0
    6.3279   -1.4246   -0.0377 C   0  0  0  0  0  0
    5.6119   -2.3919   -0.6615 F   0  0  0  0  0  0
   -0.5520   -0.5454   -1.4993 C   0  0  0  0  0  0
   -1.5517   -1.4797   -1.2422 C   0  0  0  0  0  0
   -2.3207   -1.9558   -2.3040 C   0  0  0  0  0  0
   -1.9500   -1.6146   -3.6100 C   0  0  0  0  0  0
   -0.8548   -0.7664   -3.7952 C   0  0  0  0  0  0
   -0.1750   -0.2042   -2.7621 N   0  0  0  0  0  0
   -3.5718   -2.6896   -2.0071 C   0  0  0  0  0  0
   -3.5108   -4.0538   -1.7011 C   0  0  0  0  0  0
   -4.6647   -4.7643   -1.3735 C   0  0  0  0  0  0
   -5.8978   -4.1163   -1.3451 C   0  0  0  0  0  0
   -7.4737   -5.0867   -0.9012 Br  0  0  0  0  0  0
   -5.9779   -2.7572   -1.6432 C   0  0  0  0  0  0
   -4.8235   -2.0356   -1.9626 C   0  0  0  0  0  0
   -4.9834   -0.6795   -2.2953 N   0  0  0  0  0  0
   -4.7931    0.3937   -1.4931 C   0  0  0  0  0  0
   -5.0992    1.5139   -1.8991 O   0  0  0  0  0  0
   -6.0490   -0.6091    0.7610 H   0  0  0  0  0  0
   -5.9275    1.1327    0.9777 H   0  0  0  0  0  0
   -4.9677    0.0472    1.9773 H   0  0  0  0  0  0
   -3.7174   -0.7135    0.0154 H   0  0  0  0  0  0
   -3.6774    2.2065    0.7252 H   0  0  0  0  0  0
   -2.5795    0.9608    1.1921 H   0  0  0  0  0  0
   -2.3336    1.3996   -1.7107 H   0  0  0  0  0  0
   -2.3847    2.9171   -0.9174 H   0  0  0  0  0  0
   -0.1207    2.3461   -1.1779 H   0  0  0  0  0  0
   -0.4419    2.2785    0.5273 H   0  0  0  0  0  0
   -0.5127   -0.0818    0.5562 H   0  0  0  0  0  0
    2.5523    0.4274   -1.8573 H   0  0  0  0  0  0
    1.8749    1.9529   -1.4313 H   0  0  0  0  0  0
    4.4029    1.7780   -1.0164 H   0  0  0  0  0  0
    3.5613    1.9693    0.5192 H   0  0  0  0  0  0
    3.7274   -1.8471    1.0809 H   0  0  0  0  0  0
    8.4392    1.3167    1.6905 H   0  0  0  0  0  0
    9.5149   -0.7715    0.9450 H   0  0  0  0  0  0
   -1.8268   -1.7102   -0.2233 H   0  0  0  0  0  0
   -2.5155   -1.9706   -4.4589 H   0  0  0  0  0  0
   -0.5460   -0.4763   -4.7886 H   0  0  0  0  0  0
   -2.5609   -4.5685   -1.7132 H   0  0  0  0  0  0
   -4.6003   -5.8170   -1.1407 H   0  0  0  0  0  0
   -6.9403   -2.2657   -1.6239 H   0  0  0  0  0  0
   -5.3854   -0.5022   -3.2044 H   0  0  0  0  0  0
  1  2  1  0  0  0
  1 39  1  0  0  0
  1 40  1  0  0  0
  1 41  1  0  0  0
  2  3  1  0  0  0
  2 37  1  0  0  0
  2 42  1  0  0  0
  3  4  1  0  0  0
  3 43  1  0  0  0
  3 44  1  0  0  0
  4  5  1  0  0  0
  4 45  1  0  0  0
  4 46  1  0  0  0
  5  6  1  0  0  0
  5 47  1  0  0  0
  5 48  1  0  0  0
  6  7  1  0  0  0
  6 23  1  0  0  0
  6 49  1  0  0  0
  7  8  1  0  0  0
  7 12  1  0  0  0
  8  9  1  0  0  0
  8 50  1  0  0  0
  8 51  1  0  0  0
  9 10  1  0  0  0
  9 52  1  0  0  0
  9 53  1  0  0  0
 10 11  2  0  0  0
 10 14  1  0  0  0
 11 12  1  0  0  0
 11 54  1  0  0  0
 12 13  2  0  0  0
 14 15  2  0  0  0
 14 21  1  0  0  0
 15 16  1  0  0  0
 15 17  1  0  0  0
 17 18  2  0  0  0
 17 55  1  0  0  0
 18 19  1  0  0  0
 18 56  1  0  0  0
 19 20  1  0  0  0
 19 21  2  0  0  0
 21 22  1  0  0  0
 23 24  1  0  0  0
 23 28  2  0  0  0
 24 25  2  0  0  0
 24 57  1  0  0  0
 25 26  1  0  0  0
 25 29  1  0  0  0
 26 27  2  0  0  0
 26 58  1  0  0  0
 27 28  1  0  0  0
 27 59  1  0  0  0
 29 30  2  0  0  0
 29 35  1  0  0  0
 30 31  1  0  0  0
 30 60  1  0  0  0
 31 32  2  0  0  0
 31 61  1  0  0  0
 32 33  1  0  0  0
 32 34  1  0  0  0
 34 35  2  0  0  0
 34 62  1  0  0  0
 35 36  1  0  0  0
 36 37  1  0  0  0
 36 63  1  0  0  0
 37 38  2  0  0  0
M  END
> <chembl_id>
CHEMBL4113728

> <chembl_pref_name>
None

> <i_m_ct_stereo_status>
1

> <s_m_source_file>
sdf/actives_sanitized.sdf

> <i_m_source_file_index>
168

> <i_lp_mmshare_version>
49012

> <i_f3d_flags>
0

> <s_epik_input>
bjFbY0hdW2NIXWMoW2NIXWMxMiljM2MoW2NIXWMoQnIpW2NIXVtjSF0zKVtOSF1DKD1PKVtDQEhdKFtDSDNdKVtDSDJdW0NIMl1bQ0gyXVtDQEBIXTJONFtDSDJdW0NIMl1DKD1bQ0hdQzQ9TyljNWMoRilbY0hdW2NIXWMoQ2wpYzVG

> <s_epik_cmdline>
J2VwaWtfcHl0aG9uJywgJy1waHQnLCAnMC41JywgJy1waCcsICc3LjUnLCAnLW50JywgJy1tYScsICcyMDAnLCAnLWltYWUnLCAnPGluZmlsZS5tYWU+JywgJy1vbWFlJywgJzxvdXRmaWxlLm1hZT4n

> <r_lp_tautomer_probability>
1

> <r_epik_Ionization_Penalty>
  0.0001

> <r_epik_Ionization_Penalty_Charging>
  0.0000

> <r_epik_Ionization_Penalty_Neutral>
  0.0001

> <r_epik_State_Penalty>
 -0.0000

> <r_epik_Charging_Adjusted_Penalty>
0

> <i_epik_Tot_Q>
0

> <i_epik_Tot_abs_Q>
0

> <s_lp_Force_Field>
OPLS3e

> <r_lp_Energy>
95.277505

> <b_lp_Chiralities_Consistent>
1

> <s_lp_Variant>
sdf/actives_sanitized.sdf:168-1

$$$$
sdf/actives_sanitized.sdf:169
                    3D
 Schrodinger Suite 2020-1.
 72 77  0  0  1  0            999 V2000
   -9.6776   -1.0955   -0.4897 C   0  0  0  0  0  0
   -8.5138   -1.2505    0.5105 C   0  0  2  0  0  0
   -7.1904   -1.6621   -0.1994 C   0  0  0  0  0  0
   -6.5026   -0.5338   -1.0137 C   0  0  0  0  0  0
   -4.9504   -0.5918   -1.0196 C   0  0  0  0  0  0
   -4.2321    0.1201    0.1735 C   0  0  2  0  0  0
   -2.7507    0.0935    0.0720 N   0  0  0  0  0  0
   -2.0674   -1.1480   -0.4010 C   0  0  0  0  0  0
   -0.6196   -1.2966    0.1404 C   0  0  0  0  0  0
    0.0993    0.0330    0.0077 C   0  0  0  0  0  0
   -0.6163    1.1593    0.1969 C   0  0  0  0  0  0
   -2.0390    1.2047    0.4529 C   0  0  0  0  0  0
   -2.5372    2.1968    0.9875 O   0  0  0  0  0  0
    1.5788    0.0776   -0.1131 C   0  0  0  0  0  0
    2.3333   -0.7130    0.7654 C   0  0  0  0  0  0
    3.7268   -0.6801    0.7516 C   0  0  0  0  0  0
    4.6253   -1.6623    1.8503 Cl  0  0  0  0  0  0
    4.3932    0.1516   -0.1437 C   0  0  0  0  0  0
    3.6669    0.9410   -1.0313 C   0  0  0  0  0  0
    2.2665    0.9040   -1.0347 C   0  0  0  0  0  0
    1.5974    1.6938   -1.9965 N   0  0  0  0  0  0
    1.8044    3.0049   -2.3358 C   0  0  0  0  0  0
    0.9940    3.3636   -3.2975 N   0  0  0  0  0  0
    0.3269    2.2435   -3.5358 C   0  0  0  0  0  0
   -0.7635    2.1740   -4.5812 C   0  0  0  0  0  0
    0.6417    1.2008   -2.7952 N   0  0  0  0  0  0
   -4.7573   -0.3528    1.5327 C   0  0  0  0  0  0
   -5.8868    0.2589    2.0807 C   0  0  0  0  0  0
   -6.5244   -0.3389    3.1710 C   0  0  0  0  0  0
   -5.9274   -1.4579    3.7640 C   0  0  0  0  0  0
   -4.7419   -1.9566    3.2204 C   0  0  0  0  0  0
   -4.1640   -1.4348    2.1087 N   0  0  0  0  0  0
   -7.8491    0.1667    3.6087 C   0  0  0  0  0  0
   -7.9347    1.4496    4.1638 C   0  0  0  0  0  0
   -9.1591    1.9740    4.5743 C   0  0  0  0  0  0
  -10.3219    1.2217    4.4309 C   0  0  0  0  0  0
  -10.2611   -0.0531    3.8725 C   0  0  0  0  0  0
   -9.0382   -0.5811    3.4456 C   0  0  0  0  0  0
   -9.0653   -1.8811    2.9152 N   0  0  0  0  0  0
   -8.8762   -2.2617    1.6309 C   0  0  0  0  0  0
   -8.9952   -3.4500    1.3343 O   0  0  0  0  0  0
  -10.5939   -0.7789    0.0112 H   0  0  0  0  0  0
   -9.8937   -2.0307   -1.0088 H   0  0  0  0  0  0
   -9.4492   -0.3437   -1.2459 H   0  0  0  0  0  0
   -8.3642   -0.2707    0.9583 H   0  0  0  0  0  0
   -6.4903   -2.0429    0.5433 H   0  0  0  0  0  0
   -7.3666   -2.5201   -0.8508 H   0  0  0  0  0  0
   -6.8645   -0.5932   -2.0412 H   0  0  0  0  0  0
   -6.8190    0.4495   -0.6642 H   0  0  0  0  0  0
   -4.6410   -1.6336   -1.1030 H   0  0  0  0  0  0
   -4.6065   -0.1139   -1.9383 H   0  0  0  0  0  0
   -4.5382    1.1649    0.0875 H   0  0  0  0  0  0
   -2.6791   -2.0379   -0.2544 H   0  0  0  0  0  0
   -1.9832   -1.0362   -1.4829 H   0  0  0  0  0  0
   -0.6810   -1.5649    1.1962 H   0  0  0  0  0  0
   -0.0912   -2.0974   -0.3781 H   0  0  0  0  0  0
   -0.1027    2.1105    0.1893 H   0  0  0  0  0  0
    1.8360   -1.3519    1.4812 H   0  0  0  0  0  0
    5.4729    0.1831   -0.1563 H   0  0  0  0  0  0
    4.2024    1.5692   -1.7290 H   0  0  0  0  0  0
    2.5454    3.6066   -1.8299 H   0  0  0  0  0  0
   -1.4258    1.3152   -4.4635 H   0  0  0  0  0  0
   -0.3687    2.2202   -5.5964 H   0  0  0  0  0  0
   -1.4133    3.0460   -4.4987 H   0  0  0  0  0  0
   -6.3381    1.1085    1.5884 H   0  0  0  0  0  0
   -6.3837   -1.9428    4.6147 H   0  0  0  0  0  0
   -4.2581   -2.8193    3.6538 H   0  0  0  0  0  0
   -7.0421    2.0467    4.2844 H   0  0  0  0  0  0
   -9.2054    2.9631    5.0056 H   0  0  0  0  0  0
  -11.2705    1.6263    4.7524 H   0  0  0  0  0  0
  -11.1722   -0.6252    3.7670 H   0  0  0  0  0  0
   -9.3734   -2.5981    3.5555 H   0  0  0  0  0  0
  1  2  1  0  0  0
  1 42  1  0  0  0
  1 43  1  0  0  0
  1 44  1  0  0  0
  2  3  1  0  0  0
  2 40  1  0  0  0
  2 45  1  0  0  0
  3  4  1  0  0  0
  3 46  1  0  0  0
  3 47  1  0  0  0
  4  5  1  0  0  0
  4 48  1  0  0  0
  4 49  1  0  0  0
  5  6  1  0  0  0
  5 50  1  0  0  0
  5 51  1  0  0  0
  6  7  1  0  0  0
  6 27  1  0  0  0
  6 52  1  0  0  0
  7  8  1  0  0  0
  7 12  1  0  0  0
  8  9  1  0  0  0
  8 53  1  0  0  0
  8 54  1  0  0  0
  9 10  1  0  0  0
  9 55  1  0  0  0
  9 56  1  0  0  0
 10 11  2  0  0  0
 10 14  1  0  0  0
 11 12  1  0  0  0
 11 57  1  0  0  0
 12 13  2  0  0  0
 14 15  2  0  0  0
 14 20  1  0  0  0
 15 16  1  0  0  0
 15 58  1  0  0  0
 16 17  1  0  0  0
 16 18  2  0  0  0
 18 19  1  0  0  0
 18 59  1  0  0  0
 19 20  2  0  0  0
 19 60  1  0  0  0
 20 21  1  0  0  0
 21 22  1  0  0  0
 21 26  1  0  0  0
 22 23  2  0  0  0
 22 61  1  0  0  0
 23 24  1  0  0  0
 24 25  1  0  0  0
 24 26  2  0  0  0
 25 62  1  0  0  0
 25 63  1  0  0  0
 25 64  1  0  0  0
 27 28  1  0  0  0
 27 32  2  0  0  0
 28 29  2  0  0  0
 28 65  1  0  0  0
 29 30  1  0  0  0
 29 33  1  0  0  0
 30 31  2  0  0  0
 30 66  1  0  0  0
 31 32  1  0  0  0
 31 67  1  0  0  0
 33 34  2  0  0  0
 33 38  1  0  0  0
 34 35  1  0  0  0
 34 68  1  0  0  0
 35 36  2  0  0  0
 35 69  1  0  0  0
 36 37  1  0  0  0
 36 70  1  0  0  0
 37 38  2  0  0  0
 37 71  1  0  0  0
 38 39  1  0  0  0
 39 40  1  0  0  0
 39 72  1  0  0  0
 40 41  2  0  0  0
M  END
> <chembl_id>
CHEMBL4107263

> <chembl_pref_name>
None

> <i_m_ct_stereo_status>
1

> <s_m_source_file>
sdf/actives_sanitized.sdf

> <i_m_source_file_index>
169

> <i_lp_mmshare_version>
49012

> <i_f3d_flags>
0

> <s_epik_input>
bjFbY0hdW2NIXWMoW2NIXWMxMiljM2MoW2NIXVtjSF1bY0hdW2NIXTMpW05IXUMoPU8pW0NASF0oW0NIM10pW0NIMl1bQ0gyXVtDSDJdW0NAQEhdMk40W0NIMl1bQ0gyXUMoPVtDSF1DND1PKWM1W2NIXWMoQ2wpW2NIXVtjSF1jNS1uNltjSF1uYyhuNilbQ0gzXQ==

> <s_epik_cmdline>
J2VwaWtfcHl0aG9uJywgJy1waHQnLCAnMC41JywgJy1waCcsICc3LjUnLCAnLW50JywgJy1tYScsICcyMDAnLCAnLWltYWUnLCAnPGluZmlsZS5tYWU+JywgJy1vbWFlJywgJzxvdXRmaWxlLm1hZT4n

> <r_lp_tautomer_probability>
1

> <r_epik_Ionization_Penalty>
  0.0001

> <r_epik_Ionization_Penalty_Charging>
  0.0000

> <r_epik_Ionization_Penalty_Neutral>
  0.0001

> <r_epik_State_Penalty>
 -0.0000

> <r_epik_Charging_Adjusted_Penalty>
0

> <i_epik_Tot_Q>
0

> <i_epik_Tot_abs_Q>
0

> <s_lp_Force_Field>
OPLS3e

> <r_lp_Energy>
94.317118

> <b_lp_Chiralities_Consistent>
1

> <s_lp_Variant>
sdf/actives_sanitized.sdf:169-1

$$$$
sdf/actives_sanitized.sdf:170
                    3D
 Schrodinger Suite 2020-1.
 68 72  0  0  1  0            999 V2000
   -3.2788    1.6791   -0.1540 C   0  0  0  0  0  0
   -2.1262    0.8781   -0.3766 O   0  0  0  0  0  0
   -0.8936    1.3490   -0.0987 C   0  0  0  0  0  0
   -0.6640    2.4756    0.3465 O   0  0  0  0  0  0
    0.0318    0.3507   -0.3875 N   0  0  0  0  0  0
    1.4327    0.3752   -0.2793 C   0  0  0  0  0  0
    2.1880    1.5263   -0.0140 C   0  0  0  0  0  0
    3.5759    1.4477    0.0807 C   0  0  0  0  0  0
    4.2456    0.2307   -0.0849 C   0  0  0  0  0  0
    3.4868   -0.9217   -0.3860 C   0  0  0  0  0  0
    4.0546   -2.1937   -0.5628 N   0  0  0  0  0  0
    4.7890   -2.6416   -1.6070 C   0  0  0  0  0  0
    5.1536   -3.8167   -1.6221 O   0  0  0  0  0  0
    5.1933   -1.7253   -2.7929 C   0  0  2  0  0  0
    4.4815   -2.1565   -4.0916 C   0  0  0  0  0  0
    6.7407   -1.6970   -2.9646 C   0  0  0  0  0  0
    7.2877   -0.5130   -3.8055 C   0  0  0  0  0  0
    8.6759    0.0169   -3.3521 C   0  0  0  0  0  0
    8.6685    1.1129   -2.2313 C   0  0  2  0  0  0
   10.0251    1.6325   -1.8918 N   0  0  0  0  0  0
   11.0960    0.7222   -1.9360 N   0  0  0  0  0  0
   12.2823    1.0855   -1.5993 C   0  0  0  0  0  0
   12.5269    2.4441   -1.1822 C   0  0  0  0  0  0
   11.4890    3.3157   -1.1289 C   0  0  0  0  0  0
   10.1170    2.9421   -1.4455 C   0  0  0  0  0  0
    9.1780    3.7257   -1.2912 O   0  0  0  0  0  0
   13.8940    2.8825   -0.8389 C   0  0  0  0  0  0
   14.7442    3.4349   -1.8127 C   0  0  0  0  0  0
   14.1769    3.6506   -3.6230 Br  0  0  0  0  0  0
   16.0342    3.8410   -1.4692 C   0  0  0  0  0  0
   16.4889    3.7045   -0.1598 C   0  0  0  0  0  0
   15.6548    3.1603    0.8153 C   0  0  0  0  0  0
   16.2345    2.9972    2.4351 Cl  0  0  0  0  0  0
   14.3611    2.7507    0.4787 C   0  0  0  0  0  0
   13.5574    2.2229    1.4339 F   0  0  0  0  0  0
    7.8676    0.6552   -1.0045 C   0  0  0  0  0  0
    6.4858    0.8587   -0.9659 C   0  0  0  0  0  0
    5.7265    0.2078    0.0099 C   0  0  0  0  0  0
    6.3944   -0.5208    1.0016 C   0  0  0  0  0  0
    7.7878   -0.5999    0.9560 C   0  0  0  0  0  0
    8.5257   -0.0413   -0.0371 N   0  0  0  0  0  0
    2.0930   -0.8412   -0.4651 C   0  0  0  0  0  0
   -4.1733    1.1322   -0.4514 H   0  0  0  0  0  0
   -3.2351    2.6005   -0.7366 H   0  0  0  0  0  0
   -3.3752    1.9404    0.9008 H   0  0  0  0  0  0
   -0.3551   -0.5221   -0.7154 H   0  0  0  0  0  0
    1.7302    2.4935    0.1175 H   0  0  0  0  0  0
    4.1366    2.3477    0.2892 H   0  0  0  0  0  0
    3.7857   -2.8824    0.1249 H   0  0  0  0  0  0
    4.8589   -0.7119   -2.5826 H   0  0  0  0  0  0
    3.3970   -2.1509   -3.9725 H   0  0  0  0  0  0
    4.7732   -3.1622   -4.3986 H   0  0  0  0  0  0
    4.7177   -1.4799   -4.9135 H   0  0  0  0  0  0
    7.2086   -1.6815   -1.9811 H   0  0  0  0  0  0
    7.0866   -2.6366   -3.3993 H   0  0  0  0  0  0
    7.3545   -0.8413   -4.8437 H   0  0  0  0  0  0
    6.5785    0.3151   -3.8219 H   0  0  0  0  0  0
    9.2968   -0.8319   -3.0612 H   0  0  0  0  0  0
    9.1667    0.4460   -4.2273 H   0  0  0  0  0  0
    8.1055    1.9389   -2.6752 H   0  0  0  0  0  0
   13.0762    0.3454   -1.6444 H   0  0  0  0  0  0
   11.6674    4.3383   -0.8273 H   0  0  0  0  0  0
   16.6857    4.2632   -2.2204 H   0  0  0  0  0  0
   17.4895    4.0219    0.0957 H   0  0  0  0  0  0
    5.9933    1.4052   -1.7574 H   0  0  0  0  0  0
    5.8444   -1.0317    1.7787 H   0  0  0  0  0  0
    8.3322   -1.1565    1.7044 H   0  0  0  0  0  0
    1.5193   -1.7338   -0.6761 H   0  0  0  0  0  0
  1  2  1  0  0  0
  1 43  1  0  0  0
  1 44  1  0  0  0
  1 45  1  0  0  0
  2  3  1  0  0  0
  3  4  2  0  0  0
  3  5  1  0  0  0
  5  6  1  0  0  0
  5 46  1  0  0  0
  6  7  2  0  0  0
  6 42  1  0  0  0
  7  8  1  0  0  0
  7 47  1  0  0  0
  8  9  2  0  0  0
  8 48  1  0  0  0
  9 10  1  0  0  0
  9 38  1  0  0  0
 10 11  1  0  0  0
 10 42  2  0  0  0
 11 12  1  0  0  0
 11 49  1  0  0  0
 12 13  2  0  0  0
 12 14  1  0  0  0
 14 15  1  0  0  0
 14 16  1  0  0  0
 14 50  1  0  0  0
 15 51  1  0  0  0
 15 52  1  0  0  0
 15 53  1  0  0  0
 16 17  1  0  0  0
 16 54  1  0  0  0
 16 55  1  0  0  0
 17 18  1  0  0  0
 17 56  1  0  0  0
 17 57  1  0  0  0
 18 19  1  0  0  0
 18 58  1  0  0  0
 18 59  1  0  0  0
 19 20  1  0  0  0
 19 36  1  0  0  0
 19 60  1  0  0  0
 20 21  1  0  0  0
 20 25  1  0  0  0
 21 22  2  0  0  0
 22 23  1  0  0  0
 22 61  1  0  0  0
 23 24  2  0  0  0
 23 27  1  0  0  0
 24 25  1  0  0  0
 24 62  1  0  0  0
 25 26  2  0  0  0
 27 28  2  0  0  0
 27 34  1  0  0  0
 28 29  1  0  0  0
 28 30  1  0  0  0
 30 31  2  0  0  0
 30 63  1  0  0  0
 31 32  1  0  0  0
 31 64  1  0  0  0
 32 33  1  0  0  0
 32 34  2  0  0  0
 34 35  1  0  0  0
 36 37  1  0  0  0
 36 41  2  0  0  0
 37 38  2  0  0  0
 37 65  1  0  0  0
 38 39  1  0  0  0
 39 40  2  0  0  0
 39 66  1  0  0  0
 40 41  1  0  0  0
 40 67  1  0  0  0
 42 68  1  0  0  0
M  END
> <chembl_id>
CHEMBL4113520

> <chembl_pref_name>
None

> <i_m_ct_stereo_status>
1

> <s_m_source_file>
sdf/actives_sanitized.sdf

> <i_m_source_file_index>
170

> <i_lp_mmshare_version>
49012

> <i_f3d_flags>
0

> <s_epik_input>
W0NIM11PQyg9TylbTkhdYyhbY0hdW2NIXTEpW2NIXWMoYzEyKVtOSF1DKD1PKVtDQEhdKFtDSDNdKVtDSDJdW0NIMl1bQ0gyXVtDQEBIXShjM1tjSF1jMltjSF1bY0hdbjMpbjRuW2NIXWMoW2NIXWM0PU8pLWM1YyhCcilbY0hdW2NIXWMoQ2wpYzVG

> <s_epik_cmdline>
J2VwaWtfcHl0aG9uJywgJy1waHQnLCAnMC41JywgJy1waCcsICc3LjUnLCAnLW50JywgJy1tYScsICcyMDAnLCAnLWltYWUnLCAnPGluZmlsZS5tYWU+JywgJy1vbWFlJywgJzxvdXRmaWxlLm1hZT4n

> <r_lp_tautomer_probability>
1

> <r_epik_Ionization_Penalty>
  0.0073

> <r_epik_Ionization_Penalty_Charging>
  0.0000

> <r_epik_Ionization_Penalty_Neutral>
  0.0073

> <r_epik_State_Penalty>
 -0.0000

> <r_epik_Charging_Adjusted_Penalty>
1.20687305880223e-08

> <i_epik_Tot_Q>
0

> <i_epik_Tot_abs_Q>
0

> <s_epik_Chemistry_Notes>
This compound has an ester and may undergo hydrolysis at high or low pH.

> <s_lp_Force_Field>
OPLS3e

> <r_lp_Energy>
88.718379

> <b_lp_Chiralities_Consistent>
1

> <s_lp_Variant>
sdf/actives_sanitized.sdf:170-1

$$$$
sdf/actives_sanitized.sdf:171
                    3D
 Schrodinger Suite 2020-1.
 63 67  0  0  1  0            999 V2000
   -5.2155    1.8202   -1.0646 C   0  0  0  0  0  0
   -4.1187    0.9664   -1.7328 C   0  0  2  0  0  0
   -2.7313    1.6729   -1.6967 C   0  0  0  0  0  0
   -2.0453    1.7086   -0.3049 C   0  0  0  0  0  0
   -0.4967    1.5921   -0.3422 C   0  0  0  0  0  0
    0.0711    0.1347   -0.3297 C   0  0  2  0  0  0
    1.5552    0.0631   -0.2252 N   0  0  0  0  0  0
    2.4124    0.9106   -0.9067 C   0  0  0  0  0  0
    3.7563    0.8997   -0.8166 C   0  0  0  0  0  0
    4.3550   -0.0796    0.0762 C   0  0  0  0  0  0
    3.5297   -0.9393    0.7244 C   0  0  0  0  0  0
    2.0748   -0.9589    0.5551 C   0  0  0  0  0  0
    1.4099   -1.8551    1.0798 O   0  0  0  0  0  0
    5.8131   -0.1217    0.2782 C   0  0  0  0  0  0
    6.4142    0.6804    1.2583 C   0  0  0  0  0  0
    5.6639    1.5030    2.0292 F   0  0  0  0  0  0
    7.7950    0.6403    1.4519 C   0  0  0  0  0  0
    8.5868   -0.1994    0.6713 C   0  0  0  0  0  0
    8.0002   -1.0016   -0.3073 C   0  0  0  0  0  0
    8.9966   -2.0382   -1.2658 Cl  0  0  0  0  0  0
    6.6162   -0.9632   -0.5055 C   0  0  0  0  0  0
    6.0529   -1.7448   -1.4587 F   0  0  0  0  0  0
   -0.5041   -0.7066   -1.4729 C   0  0  0  0  0  0
   -1.6997   -1.3997   -1.2749 C   0  0  0  0  0  0
   -2.3730   -1.9277   -2.3793 C   0  0  0  0  0  0
   -1.7555   -1.8599   -3.6344 C   0  0  0  0  0  0
   -0.5103   -1.2359   -3.7394 C   0  0  0  0  0  0
    0.1101   -0.6445   -2.6861 N   0  0  0  0  0  0
   -3.7498   -2.4540   -2.2063 C   0  0  0  0  0  0
   -3.9426   -3.6003   -1.4254 C   0  0  0  0  0  0
   -5.2187   -4.1189   -1.2122 C   0  0  0  0  0  0
   -6.3285   -3.4939   -1.7777 C   0  0  0  0  0  0
   -7.6052   -4.0128   -1.5680 N   0  0  0  0  0  0
   -6.1590   -2.3468   -2.5521 C   0  0  0  0  0  0
   -4.8828   -1.8123   -2.7567 C   0  0  0  0  0  0
   -4.8039   -0.6663   -3.5641 N   0  0  0  0  0  0
   -4.5108    0.6001   -3.1893 C   0  0  0  0  0  0
   -4.5547    1.4982   -4.0292 O   0  0  0  0  0  0
   -6.1787    1.3077   -1.0712 H   0  0  0  0  0  0
   -5.3497    2.7771   -1.5715 H   0  0  0  0  0  0
   -4.9712    2.0302   -0.0228 H   0  0  0  0  0  0
   -4.0460    0.0518   -1.1487 H   0  0  0  0  0  0
   -2.0657    1.1874   -2.4095 H   0  0  0  0  0  0
   -2.8208    2.6915   -2.0784 H   0  0  0  0  0  0
   -2.3205    2.6454    0.1817 H   0  0  0  0  0  0
   -2.4445    0.9299    0.3460 H   0  0  0  0  0  0
   -0.1244    2.1586   -1.1956 H   0  0  0  0  0  0
   -0.1064    2.1036    0.5390 H   0  0  0  0  0  0
   -0.3381   -0.2993    0.5852 H   0  0  0  0  0  0
    1.9010    1.5587   -1.6011 H   0  0  0  0  0  0
    4.3630    1.5693   -1.4088 H   0  0  0  0  0  0
    3.9562   -1.6696    1.3977 H   0  0  0  0  0  0
    8.2526    1.2605    2.2088 H   0  0  0  0  0  0
    9.6555   -0.2260    0.8272 H   0  0  0  0  0  0
   -2.1664   -1.4119   -0.3003 H   0  0  0  0  0  0
   -2.2394   -2.2627   -4.5123 H   0  0  0  0  0  0
   -0.0101   -1.1654   -4.6938 H   0  0  0  0  0  0
   -3.0937   -4.0988   -0.9795 H   0  0  0  0  0  0
   -5.3371   -5.0069   -0.6079 H   0  0  0  0  0  0
   -8.4049   -3.5384   -1.9620 H   0  0  0  0  0  0
   -7.7211   -4.8221   -0.9752 H   0  0  0  0  0  0
   -7.0225   -1.8643   -2.9893 H   0  0  0  0  0  0
   -5.1171   -0.7915   -4.5156 H   0  0  0  0  0  0
  1  2  1  0  0  0
  1 39  1  0  0  0
  1 40  1  0  0  0
  1 41  1  0  0  0
  2  3  1  0  0  0
  2 37  1  0  0  0
  2 42  1  0  0  0
  3  4  1  0  0  0
  3 43  1  0  0  0
  3 44  1  0  0  0
  4  5  1  0  0  0
  4 45  1  0  0  0
  4 46  1  0  0  0
  5  6  1  0  0  0
  5 47  1  0  0  0
  5 48  1  0  0  0
  6  7  1  0  0  0
  6 23  1  0  0  0
  6 49  1  0  0  0
  7  8  1  0  0  0
  7 12  1  0  0  0
  8  9  2  0  0  0
  8 50  1  0  0  0
  9 10  1  0  0  0
  9 51  1  0  0  0
 10 11  2  0  0  0
 10 14  1  0  0  0
 11 12  1  0  0  0
 11 52  1  0  0  0
 12 13  2  0  0  0
 14 15  2  0  0  0
 14 21  1  0  0  0
 15 16  1  0  0  0
 15 17  1  0  0  0
 17 18  2  0  0  0
 17 53  1  0  0  0
 18 19  1  0  0  0
 18 54  1  0  0  0
 19 20  1  0  0  0
 19 21  2  0  0  0
 21 22  1  0  0  0
 23 24  1  0  0  0
 23 28  2  0  0  0
 24 25  2  0  0  0
 24 55  1  0  0  0
 25 26  1  0  0  0
 25 29  1  0  0  0
 26 27  2  0  0  0
 26 56  1  0  0  0
 27 28  1  0  0  0
 27 57  1  0  0  0
 29 30  2  0  0  0
 29 35  1  0  0  0
 30 31  1  0  0  0
 30 58  1  0  0  0
 31 32  2  0  0  0
 31 59  1  0  0  0
 32 33  1  0  0  0
 32 34  1  0  0  0
 33 60  1  0  0  0
 33 61  1  0  0  0
 34 35  2  0  0  0
 34 62  1  0  0  0
 35 36  1  0  0  0
 36 37  1  0  0  0
 36 63  1  0  0  0
 37 38  2  0  0  0
M  END
> <chembl_id>
CHEMBL4112483

> <chembl_pref_name>
None

> <i_m_ct_stereo_status>
1

> <s_m_source_file>
sdf/actives_sanitized.sdf

> <i_m_source_file_index>
171

> <i_lp_mmshare_version>
49012

> <i_f3d_flags>
0

> <s_epik_input>
bjFbY0hdW2NIXWMoW2NIXWMxMiljM2MoW2NIXWMoW05IMl0pW2NIXVtjSF0zKVtOSF1DKD1PKVtDQEhdKFtDSDNdKVtDSDJdW0NIMl1bQ0gyXVtDQEBIXTJuNFtjSF1bY0hdYyhbY0hdYzQ9TyktYzVjKEYpW2NIXVtjSF1jKENsKWM1Rg==

> <s_epik_cmdline>
J2VwaWtfcHl0aG9uJywgJy1waHQnLCAnMC41JywgJy1waCcsICc3LjUnLCAnLW50JywgJy1tYScsICcyMDAnLCAnLWltYWUnLCAnPGluZmlsZS5tYWU+JywgJy1vbWFlJywgJzxvdXRmaWxlLm1hZT4n

> <r_lp_tautomer_probability>
1

> <r_epik_Ionization_Penalty>
  0.0089

> <r_epik_Ionization_Penalty_Charging>
  0.0000

> <r_epik_Ionization_Penalty_Neutral>
  0.0089

> <r_epik_State_Penalty>
 -0.0000

> <r_epik_Charging_Adjusted_Penalty>
3.64357097057384e-07

> <i_epik_Tot_Q>
0

> <i_epik_Tot_abs_Q>
0

> <s_lp_Force_Field>
OPLS3e

> <r_lp_Energy>
77.294775

> <b_lp_Chiralities_Consistent>
1

> <s_lp_Variant>
sdf/actives_sanitized.sdf:171-1

$$$$
sdf/actives_sanitized.sdf:172
                    3D
 Schrodinger Suite 2020-1.
 73 78  0  0  1  0            999 V2000
   -5.0113    3.0688   -1.0769 C   0  0  0  0  0  0
   -3.7597    2.1668   -0.9969 C   0  0  2  0  0  0
   -2.7997    2.6794    0.1333 C   0  0  0  0  0  0
   -1.7629    1.6869    0.7293 C   0  0  0  0  0  0
   -0.4701    1.4464   -0.0980 C   0  0  0  0  0  0
    0.1290    0.0008   -0.0028 C   0  0  2  0  0  0
    1.6125    0.0215    0.0212 N   0  0  0  0  0  0
    2.3289    0.7835   -1.0430 C   0  0  0  0  0  0
    3.7555    0.2340   -1.3112 C   0  0  0  0  0  0
    4.4604    0.0292    0.0197 C   0  0  0  0  0  0
    3.7202   -0.4142    1.0565 C   0  0  0  0  0  0
    2.2875   -0.6201    1.0296 C   0  0  0  0  0  0
    1.7518   -1.3478    1.8672 O   0  0  0  0  0  0
    5.9431    0.0340    0.1067 C   0  0  0  0  0  0
    6.7295   -0.6204   -0.8577 C   0  0  0  0  0  0
    6.1575   -1.2992   -1.8796 F   0  0  0  0  0  0
    8.1216   -0.5985   -0.7726 C   0  0  0  0  0  0
    8.7505    0.0737    0.2715 C   0  0  0  0  0  0
    7.9883    0.7283    1.2362 C   0  0  0  0  0  0
    8.7832    1.5642    2.5229 Cl  0  0  0  0  0  0
    6.5926    0.7108    1.1556 C   0  0  0  0  0  0
    5.8699    1.3708    2.0934 F   0  0  0  0  0  0
   -0.4617   -0.9443   -1.0742 C   0  0  0  0  0  0
   -1.8218   -0.8820   -1.3659 C   0  0  0  0  0  0
   -2.3507   -1.5661   -2.4546 C   0  0  0  0  0  0
   -1.5072   -2.4257   -3.1666 C   0  0  0  0  0  0
   -0.1635   -2.5088   -2.7861 C   0  0  0  0  0  0
    0.3676   -1.7726   -1.7726 N   0  0  0  0  0  0
   -3.7672   -1.3068   -2.8214 C   0  0  0  0  0  0
   -4.6840   -2.3623   -2.8374 C   0  0  0  0  0  0
   -6.0338   -2.1321   -3.0978 C   0  0  0  0  0  0
   -6.4976   -0.8360   -3.3469 C   0  0  0  0  0  0
   -7.8432   -0.5623   -3.6374 N   0  0  0  0  0  0
   -9.0317   -1.1486   -3.1754 C   0  0  0  0  0  0
   -9.0841   -2.0514   -2.1014 C   0  0  0  0  0  0
  -10.2590   -2.5769   -1.6648 N   0  0  0  0  0  0
  -11.3910   -2.1878   -2.3065 C   0  0  0  0  0  0
  -11.3504   -1.2793   -3.3659 C   0  0  0  0  0  0
  -10.1741   -0.7536   -3.7987 N   0  0  0  0  0  0
   -5.5846    0.2196   -3.3739 C   0  0  0  0  0  0
   -4.2305   -0.0018   -3.1026 C   0  0  0  0  0  0
   -3.3336    1.0706   -3.2530 N   0  0  0  0  0  0
   -3.0951    2.0908   -2.3977 C   0  0  0  0  0  0
   -2.3314    2.9917   -2.7421 O   0  0  0  0  0  0
   -5.7202    2.7188   -1.8277 H   0  0  0  0  0  0
   -4.7522    4.0987   -1.3283 H   0  0  0  0  0  0
   -5.5459    3.0865   -0.1266 H   0  0  0  0  0  0
   -4.1182    1.1788   -0.7091 H   0  0  0  0  0  0
   -2.2969    3.5989   -0.1715 H   0  0  0  0  0  0
   -3.4247    2.9835    0.9748 H   0  0  0  0  0  0
   -1.4486    2.0775    1.6987 H   0  0  0  0  0  0
   -2.2624    0.7553    0.9904 H   0  0  0  0  0  0
   -0.6271    1.6956   -1.1462 H   0  0  0  0  0  0
    0.2630    2.1805    0.2406 H   0  0  0  0  0  0
   -0.2342   -0.4108    0.9402 H   0  0  0  0  0  0
    1.7180    0.9160   -1.9366 H   0  0  0  0  0  0
    2.4675    1.7876   -0.6396 H   0  0  0  0  0  0
    3.6524   -0.7253   -1.8204 H   0  0  0  0  0  0
    4.3139    0.9035   -1.9662 H   0  0  0  0  0  0
    4.2189   -0.6720    1.9804 H   0  0  0  0  0  0
    8.7155   -1.1067   -1.5180 H   0  0  0  0  0  0
    9.8292    0.0862    0.3295 H   0  0  0  0  0  0
   -2.4797   -0.2538   -0.8016 H   0  0  0  0  0  0
   -1.8750   -2.9933   -4.0089 H   0  0  0  0  0  0
    0.5194   -3.1538   -3.3189 H   0  0  0  0  0  0
   -4.3532   -3.3699   -2.6302 H   0  0  0  0  0  0
   -6.7093   -2.9742   -3.1176 H   0  0  0  0  0  0
   -7.9869    0.2291   -4.2481 H   0  0  0  0  0  0
   -8.2042   -2.3497   -1.5528 H   0  0  0  0  0  0
  -12.3244   -2.6063   -1.9598 H   0  0  0  0  0  0
  -12.2506   -0.9649   -3.8732 H   0  0  0  0  0  0
   -5.9256    1.2156   -3.6203 H   0  0  0  0  0  0
   -2.7894    1.0564   -4.1033 H   0  0  0  0  0  0
  1  2  1  0  0  0
  1 45  1  0  0  0
  1 46  1  0  0  0
  1 47  1  0  0  0
  2  3  1  0  0  0
  2 43  1  0  0  0
  2 48  1  0  0  0
  3  4  1  0  0  0
  3 49  1  0  0  0
  3 50  1  0  0  0
  4  5  1  0  0  0
  4 51  1  0  0  0
  4 52  1  0  0  0
  5  6  1  0  0  0
  5 53  1  0  0  0
  5 54  1  0  0  0
  6  7  1  0  0  0
  6 23  1  0  0  0
  6 55  1  0  0  0
  7  8  1  0  0  0
  7 12  1  0  0  0
  8  9  1  0  0  0
  8 56  1  0  0  0
  8 57  1  0  0  0
  9 10  1  0  0  0
  9 58  1  0  0  0
  9 59  1  0  0  0
 10 11  2  0  0  0
 10 14  1  0  0  0
 11 12  1  0  0  0
 11 60  1  0  0  0
 12 13  2  0  0  0
 14 15  2  0  0  0
 14 21  1  0  0  0
 15 16  1  0  0  0
 15 17  1  0  0  0
 17 18  2  0  0  0
 17 61  1  0  0  0
 18 19  1  0  0  0
 18 62  1  0  0  0
 19 20  1  0  0  0
 19 21  2  0  0  0
 21 22  1  0  0  0
 23 24  1  0  0  0
 23 28  2  0  0  0
 24 25  2  0  0  0
 24 63  1  0  0  0
 25 26  1  0  0  0
 25 29  1  0  0  0
 26 27  2  0  0  0
 26 64  1  0  0  0
 27 28  1  0  0  0
 27 65  1  0  0  0
 29 30  2  0  0  0
 29 41  1  0  0  0
 30 31  1  0  0  0
 30 66  1  0  0  0
 31 32  2  0  0  0
 31 67  1  0  0  0
 32 33  1  0  0  0
 32 40  1  0  0  0
 33 34  1  0  0  0
 33 68  1  0  0  0
 34 35  2  0  0  0
 34 39  1  0  0  0
 35 36  1  0  0  0
 35 69  1  0  0  0
 36 37  2  0  0  0
 37 38  1  0  0  0
 37 70  1  0  0  0
 38 39  2  0  0  0
 38 71  1  0  0  0
 40 41  2  0  0  0
 40 72  1  0  0  0
 41 42  1  0  0  0
 42 43  1  0  0  0
 42 73  1  0  0  0
 43 44  2  0  0  0
M  END
> <chembl_id>
CHEMBL4107398

> <chembl_pref_name>
None

> <i_m_ct_stereo_status>
1

> <s_m_source_file>
sdf/actives_sanitized.sdf

> <i_m_source_file_index>
172

> <i_lp_mmshare_version>
49012

> <i_f3d_flags>
0

> <s_epik_input>
bjFbY0hdW2NIXW5bY0hdYzFbTkhdYyhbY0hdW2NIXTIpW2NIXWMoYzJjKFtjSF1jMzQpW2NIXVtjSF1uNClbTkhdQyg9TylbQ0BIXShbQ0gzXSlbQ0gyXVtDSDJdW0NIMl1bQ0BASF0zTjVbQ0gyXVtDSDJdQyg9W0NIXUM1PU8pYzZjKEYpW2NIXVtjSF1jKENsKWM2Rg==

> <s_epik_cmdline>
J2VwaWtfcHl0aG9uJywgJy1waHQnLCAnMC41JywgJy1waCcsICc3LjUnLCAnLW50JywgJy1tYScsICcyMDAnLCAnLWltYWUnLCAnPGluZmlsZS5tYWU+JywgJy1vbWFlJywgJzxvdXRmaWxlLm1hZT4n

> <r_lp_tautomer_probability>
1

> <r_epik_Ionization_Penalty>
  0.0001

> <r_epik_Ionization_Penalty_Charging>
  0.0000

> <r_epik_Ionization_Penalty_Neutral>
  0.0001

> <r_epik_State_Penalty>
 -0.0000

> <r_epik_Charging_Adjusted_Penalty>
0

> <i_epik_Tot_Q>
0

> <i_epik_Tot_abs_Q>
0

> <s_lp_Force_Field>
OPLS3e

> <r_lp_Energy>
110.494172

> <b_lp_Chiralities_Consistent>
1

> <s_lp_Variant>
sdf/actives_sanitized.sdf:172-1

$$$$
sdf/actives_sanitized.sdf:173
                    3D
 Schrodinger Suite 2020-1.
 74 78  0  0  1  0            999 V2000
  -10.2878   -6.1294   -1.0903 C   0  0  0  0  0  0
   -9.4896   -5.0849   -1.6299 O   0  0  0  0  0  0
   -8.1691   -5.0185   -1.3673 C   0  0  0  0  0  0
   -7.5611   -5.8201   -0.6550 O   0  0  0  0  0  0
   -7.6481   -3.9077   -2.0238 N   0  0  0  0  0  0
   -6.3233   -3.4432   -2.0788 C   0  0  0  0  0  0
   -5.2163   -4.1397   -1.5735 C   0  0  0  0  0  0
   -3.9373   -3.5993   -1.6862 C   0  0  0  0  0  0
   -3.7254   -2.3626   -2.3047 C   0  0  0  0  0  0
   -4.8431   -1.6518   -2.7944 C   0  0  0  0  0  0
   -4.7433   -0.4105   -3.4439 N   0  0  0  0  0  0
   -4.4531    0.7947   -2.9016 C   0  0  0  0  0  0
   -4.4677    1.7936   -3.6199 O   0  0  0  0  0  0
   -4.1018    0.9679   -1.3996 C   0  0  2  0  0  0
   -5.2162    1.7340   -0.6581 C   0  0  0  0  0  0
   -2.7148    1.6567   -1.2324 C   0  0  0  0  0  0
   -2.0681    1.5048    0.1704 C   0  0  0  0  0  0
   -0.5187    1.3890    0.1636 C   0  0  0  0  0  0
    0.0516   -0.0548   -0.0196 C   0  0  2  0  0  0
    1.5299   -0.1372    0.0945 N   0  0  0  0  0  0
    2.3766    0.9534   -0.4758 C   0  0  0  0  0  0
    3.8078    0.4909   -0.8629 C   0  0  0  0  0  0
    4.3654   -0.3911    0.2361 C   0  0  0  0  0  0
    3.5161   -1.2071    0.8887 C   0  0  0  0  0  0
    2.0841   -1.2449    0.6889 C   0  0  0  0  0  0
    1.4401   -2.2354    1.0404 O   0  0  0  0  0  0
    5.8244   -0.5810    0.3522 C   0  0  0  0  0  0
    6.6209    0.4892    0.7765 C   0  0  0  0  0  0
    8.0086    0.3538    0.8772 C   0  0  0  0  0  0
    8.8615    1.5231    1.3355 C   0  0  0  0  0  0
    8.6095   -0.8583    0.5306 C   0  0  0  0  0  0
    7.8284   -1.9260    0.0918 C   0  0  0  0  0  0
    6.4431   -1.7902   -0.0024 C   0  0  0  0  0  0
    5.7090   -2.8374   -0.4475 F   0  0  0  0  0  0
   -0.4994   -0.7349   -1.2754 C   0  0  0  0  0  0
   -1.6995   -1.4429   -1.1963 C   0  0  0  0  0  0
   -2.3448   -1.8240   -2.3751 C   0  0  0  0  0  0
   -1.6959   -1.6006   -3.5958 C   0  0  0  0  0  0
   -0.4479   -0.9734   -3.5901 C   0  0  0  0  0  0
    0.1459   -0.5226   -2.4556 N   0  0  0  0  0  0
   -6.1229   -2.2057   -2.6943 C   0  0  0  0  0  0
  -11.3204   -6.0131   -1.4184 H   0  0  0  0  0  0
  -10.2733   -6.1102    0.0003 H   0  0  0  0  0  0
   -9.9336   -7.1057   -1.4244 H   0  0  0  0  0  0
   -8.3155   -3.3509   -2.5368 H   0  0  0  0  0  0
   -5.3128   -5.1027   -1.0986 H   0  0  0  0  0  0
   -3.0989   -4.1546   -1.2903 H   0  0  0  0  0  0
   -5.0327   -0.4093   -4.4111 H   0  0  0  0  0  0
   -4.0471   -0.0146   -0.9366 H   0  0  0  0  0  0
   -6.1783    1.2280   -0.7527 H   0  0  0  0  0  0
   -5.3388    2.7468   -1.0449 H   0  0  0  0  0  0
   -4.9980    1.8125    0.4074 H   0  0  0  0  0  0
   -2.0304    1.2669   -1.9851 H   0  0  0  0  0  0
   -2.7918    2.7173   -1.4786 H   0  0  0  0  0  0
   -2.3575    2.3697    0.7690 H   0  0  0  0  0  0
   -2.4848    0.6479    0.7008 H   0  0  0  0  0  0
   -0.1178    2.0710   -0.5865 H   0  0  0  0  0  0
   -0.1562    1.7654    1.1213 H   0  0  0  0  0  0
   -0.3587   -0.6130    0.8247 H   0  0  0  0  0  0
    1.8678    1.5003   -1.2692 H   0  0  0  0  0  0
    2.4930    1.6763    0.3328 H   0  0  0  0  0  0
    3.7406   -0.0949   -1.7809 H   0  0  0  0  0  0
    4.4540    1.3446   -1.0696 H   0  0  0  0  0  0
    3.9212   -1.9211    1.5925 H   0  0  0  0  0  0
    6.1572    1.4307    1.0362 H   0  0  0  0  0  0
    9.8146    1.5363    0.8050 H   0  0  0  0  0  0
    9.0629    1.4546    2.4048 H   0  0  0  0  0  0
    8.3735    2.4758    1.1263 H   0  0  0  0  0  0
    9.6816   -0.9748    0.5967 H   0  0  0  0  0  0
    8.2989   -2.8592   -0.1811 H   0  0  0  0  0  0
   -2.1900   -1.5773   -0.2427 H   0  0  0  0  0  0
   -2.1584   -1.8875   -4.5290 H   0  0  0  0  0  0
    0.0770   -0.7853   -4.5149 H   0  0  0  0  0  0
   -6.9705   -1.6622   -3.0900 H   0  0  0  0  0  0
  1  2  1  0  0  0
  1 42  1  0  0  0
  1 43  1  0  0  0
  1 44  1  0  0  0
  2  3  1  0  0  0
  3  4  2  0  0  0
  3  5  1  0  0  0
  5  6  1  0  0  0
  5 45  1  0  0  0
  6  7  2  0  0  0
  6 41  1  0  0  0
  7  8  1  0  0  0
  7 46  1  0  0  0
  8  9  2  0  0  0
  8 47  1  0  0  0
  9 10  1  0  0  0
  9 37  1  0  0  0
 10 11  1  0  0  0
 10 41  2  0  0  0
 11 12  1  0  0  0
 11 48  1  0  0  0
 12 13  2  0  0  0
 12 14  1  0  0  0
 14 15  1  0  0  0
 14 16  1  0  0  0
 14 49  1  0  0  0
 15 50  1  0  0  0
 15 51  1  0  0  0
 15 52  1  0  0  0
 16 17  1  0  0  0
 16 53  1  0  0  0
 16 54  1  0  0  0
 17 18  1  0  0  0
 17 55  1  0  0  0
 17 56  1  0  0  0
 18 19  1  0  0  0
 18 57  1  0  0  0
 18 58  1  0  0  0
 19 20  1  0  0  0
 19 35  1  0  0  0
 19 59  1  0  0  0
 20 21  1  0  0  0
 20 25  1  0  0  0
 21 22  1  0  0  0
 21 60  1  0  0  0
 21 61  1  0  0  0
 22 23  1  0  0  0
 22 62  1  0  0  0
 22 63  1  0  0  0
 23 24  2  0  0  0
 23 27  1  0  0  0
 24 25  1  0  0  0
 24 64  1  0  0  0
 25 26  2  0  0  0
 27 28  2  0  0  0
 27 33  1  0  0  0
 28 29  1  0  0  0
 28 65  1  0  0  0
 29 30  1  0  0  0
 29 31  2  0  0  0
 30 66  1  0  0  0
 30 67  1  0  0  0
 30 68  1  0  0  0
 31 32  1  0  0  0
 31 69  1  0  0  0
 32 33  2  0  0  0
 32 70  1  0  0  0
 33 34  1  0  0  0
 35 36  1  0  0  0
 35 40  2  0  0  0
 36 37  2  0  0  0
 36 71  1  0  0  0
 37 38  1  0  0  0
 38 39  2  0  0  0
 38 72  1  0  0  0
 39 40  1  0  0  0
 39 73  1  0  0  0
 41 74  1  0  0  0
M  END
> <chembl_id>
CHEMBL4113983

> <chembl_pref_name>
None

> <i_m_ct_stereo_status>
1

> <s_m_source_file>
sdf/actives_sanitized.sdf

> <i_m_source_file_index>
173

> <i_lp_mmshare_version>
49012

> <i_f3d_flags>
0

> <s_epik_input>
W0NIM11PQyg9TylbTkhdYyhbY0hdW2NIXTEpW2NIXWMoYzEyKVtOSF1DKD1PKVtDQEhdKFtDSDNdKVtDSDJdW0NIMl1bQ0gyXVtDQEBIXShjM1tjSF1jMltjSF1bY0hdbjMpTjRbQ0gyXVtDSDJdQyg9W0NIXUM0PU8pYzVbY0hdYyhbQ0gzXSlbY0hdW2NIXWM1Rg==

> <s_epik_cmdline>
J2VwaWtfcHl0aG9uJywgJy1waHQnLCAnMC41JywgJy1waCcsICc3LjUnLCAnLW50JywgJy1tYScsICcyMDAnLCAnLWltYWUnLCAnPGluZmlsZS5tYWU+JywgJy1vbWFlJywgJzxvdXRmaWxlLm1hZT4n

> <r_lp_tautomer_probability>
1

> <r_epik_Ionization_Penalty>
  0.0001

> <r_epik_Ionization_Penalty_Charging>
  0.0000

> <r_epik_Ionization_Penalty_Neutral>
  0.0001

> <r_epik_State_Penalty>
 -0.0000

> <r_epik_Charging_Adjusted_Penalty>
0

> <i_epik_Tot_Q>
0

> <i_epik_Tot_abs_Q>
0

> <s_epik_Chemistry_Notes>
This compound has an ester and may undergo hydrolysis at high or low pH.

> <s_lp_Force_Field>
OPLS3e

> <r_lp_Energy>
89.647437

> <b_lp_Chiralities_Consistent>
1

> <s_lp_Variant>
sdf/actives_sanitized.sdf:173-1

$$$$
sdf/actives_sanitized.sdf:174
                    3D
 Schrodinger Suite 2020-1.
 65 69  0  0  1  0            999 V2000
   -5.2528    1.7460   -0.9197 C   0  0  0  0  0  0
   -4.1348    0.9373   -1.6090 C   0  0  2  0  0  0
   -2.7516    1.6430   -1.4894 C   0  0  0  0  0  0
   -2.1000    1.5790   -0.0821 C   0  0  0  0  0  0
   -0.5497    1.4798   -0.0887 C   0  0  0  0  0  0
    0.0415    0.0361   -0.1911 C   0  0  2  0  0  0
    1.5230   -0.0042   -0.0983 N   0  0  0  0  0  0
    2.3340    1.0352   -0.8010 C   0  0  0  0  0  0
    3.7611    0.5493   -1.1735 C   0  0  0  0  0  0
    4.3689   -0.1659    0.0202 C   0  0  0  0  0  0
    3.5489   -0.9190    0.7801 C   0  0  0  0  0  0
    2.1161   -1.0236    0.6056 C   0  0  0  0  0  0
    1.5066   -1.9875    1.0727 O   0  0  0  0  0  0
    5.8407   -0.2831    0.1723 C   0  0  0  0  0  0
    6.6580   -0.6289   -0.9179 C   0  0  0  0  0  0
    6.1234   -0.8865   -2.1345 F   0  0  0  0  0  0
    8.0405   -0.7314   -0.7638 C   0  0  0  0  0  0
    8.6283   -0.4907    0.4749 C   0  0  0  0  0  0
    7.8345   -0.1440    1.5661 C   0  0  0  0  0  0
    8.5795    0.1593    3.0956 Cl  0  0  0  0  0  0
    6.4479   -0.0399    1.4176 C   0  0  0  0  0  0
    5.6934    0.3136    2.4867 F   0  0  0  0  0  0
   -0.5150   -0.7339   -1.3924 C   0  0  0  0  0  0
   -1.7132   -1.4378   -1.2573 C   0  0  0  0  0  0
   -2.3600   -1.9089   -2.4026 C   0  0  0  0  0  0
   -1.7142   -1.7775   -3.6380 C   0  0  0  0  0  0
   -0.4679   -1.1491   -3.6827 C   0  0  0  0  0  0
    0.1270   -0.6119   -2.5871 N   0  0  0  0  0  0
   -3.7383   -2.4467   -2.2904 C   0  0  0  0  0  0
   -3.9438   -3.6409   -1.5894 C   0  0  0  0  0  0
   -5.2213   -4.1789   -1.4400 C   0  0  0  0  0  0
   -5.3774   -5.3395   -0.7592 F   0  0  0  0  0  0
   -6.3234   -3.5207   -1.9920 C   0  0  0  0  0  0
   -7.6092   -4.0469   -1.8570 N   0  0  0  0  0  0
   -6.1384   -2.3241   -2.6847 C   0  0  0  0  0  0
   -4.8604   -1.7740   -2.8244 C   0  0  0  0  0  0
   -4.7662   -0.5792   -3.5561 N   0  0  0  0  0  0
   -4.4859    0.6617   -3.0957 C   0  0  0  0  0  0
   -4.5091    1.6102   -3.8791 O   0  0  0  0  0  0
   -6.2135    1.2328   -0.9842 H   0  0  0  0  0  0
   -5.3774    2.7320   -1.3700 H   0  0  0  0  0  0
   -5.0372    1.8922    0.1391 H   0  0  0  0  0  0
   -4.0749   -0.0117   -1.0811 H   0  0  0  0  0  0
   -2.0668    1.2123   -2.2190 H   0  0  0  0  0  0
   -2.8361    2.6866   -1.7986 H   0  0  0  0  0  0
   -2.3975    2.4733    0.4674 H   0  0  0  0  0  0
   -2.5057    0.7496    0.4982 H   0  0  0  0  0  0
   -0.1593    2.1234   -0.8771 H   0  0  0  0  0  0
   -0.1885    1.9152    0.8444 H   0  0  0  0  0  0
   -0.3466   -0.4768    0.6914 H   0  0  0  0  0  0
    1.7953    1.4848   -1.6348 H   0  0  0  0  0  0
    2.4591    1.8424   -0.0779 H   0  0  0  0  0  0
    3.6662   -0.1507   -2.0047 H   0  0  0  0  0  0
    4.3821    1.3812   -1.5074 H   0  0  0  0  0  0
    3.9778   -1.5256    1.5655 H   0  0  0  0  0  0
    8.6587   -1.0021   -1.6072 H   0  0  0  0  0  0
    9.6998   -0.5730    0.5855 H   0  0  0  0  0  0
   -2.2002   -1.5027   -0.2949 H   0  0  0  0  0  0
   -2.1771   -2.1369   -4.5456 H   0  0  0  0  0  0
    0.0558   -1.0324   -4.6199 H   0  0  0  0  0  0
   -3.1014   -4.1624   -1.1577 H   0  0  0  0  0  0
   -8.3950   -3.5543   -2.2567 H   0  0  0  0  0  0
   -7.7396   -4.9110   -1.3503 H   0  0  0  0  0  0
   -6.9927   -1.8157   -3.1108 H   0  0  0  0  0  0
   -5.0521   -0.6455   -4.5220 H   0  0  0  0  0  0
  1  2  1  0  0  0
  1 40  1  0  0  0
  1 41  1  0  0  0
  1 42  1  0  0  0
  2  3  1  0  0  0
  2 38  1  0  0  0
  2 43  1  0  0  0
  3  4  1  0  0  0
  3 44  1  0  0  0
  3 45  1  0  0  0
  4  5  1  0  0  0
  4 46  1  0  0  0
  4 47  1  0  0  0
  5  6  1  0  0  0
  5 48  1  0  0  0
  5 49  1  0  0  0
  6  7  1  0  0  0
  6 23  1  0  0  0
  6 50  1  0  0  0
  7  8  1  0  0  0
  7 12  1  0  0  0
  8  9  1  0  0  0
  8 51  1  0  0  0
  8 52  1  0  0  0
  9 10  1  0  0  0
  9 53  1  0  0  0
  9 54  1  0  0  0
 10 11  2  0  0  0
 10 14  1  0  0  0
 11 12  1  0  0  0
 11 55  1  0  0  0
 12 13  2  0  0  0
 14 15  2  0  0  0
 14 21  1  0  0  0
 15 16  1  0  0  0
 15 17  1  0  0  0
 17 18  2  0  0  0
 17 56  1  0  0  0
 18 19  1  0  0  0
 18 57  1  0  0  0
 19 20  1  0  0  0
 19 21  2  0  0  0
 21 22  1  0  0  0
 23 24  1  0  0  0
 23 28  2  0  0  0
 24 25  2  0  0  0
 24 58  1  0  0  0
 25 26  1  0  0  0
 25 29  1  0  0  0
 26 27  2  0  0  0
 26 59  1  0  0  0
 27 28  1  0  0  0
 27 60  1  0  0  0
 29 30  2  0  0  0
 29 36  1  0  0  0
 30 31  1  0  0  0
 30 61  1  0  0  0
 31 32  1  0  0  0
 31 33  2  0  0  0
 33 34  1  0  0  0
 33 35  1  0  0  0
 34 62  1  0  0  0
 34 63  1  0  0  0
 35 36  2  0  0  0
 35 64  1  0  0  0
 36 37  1  0  0  0
 37 38  1  0  0  0
 37 65  1  0  0  0
 38 39  2  0  0  0
M  END
> <chembl_id>
CHEMBL4111951

> <chembl_pref_name>
None

> <i_m_ct_stereo_status>
1

> <s_m_source_file>
sdf/actives_sanitized.sdf

> <i_m_source_file_index>
174

> <i_lp_mmshare_version>
49012

> <i_f3d_flags>
0

> <s_epik_input>
bjFbY0hdW2NIXWMoW2NIXWMxMiljM2MoW2NIXWMoW05IMl0pYyhGKVtjSF0zKVtOSF1DKD1PKVtDQEhdKFtDSDNdKVtDSDJdW0NIMl1bQ0gyXVtDQEBIXTJONFtDSDJdW0NIMl1DKD1bQ0hdQzQ9TyljNWMoRilbY0hdW2NIXWMoQ2wpYzVG

> <s_epik_cmdline>
J2VwaWtfcHl0aG9uJywgJy1waHQnLCAnMC41JywgJy1waCcsICc3LjUnLCAnLW50JywgJy1tYScsICcyMDAnLCAnLWltYWUnLCAnPGluZmlsZS5tYWU+JywgJy1vbWFlJywgJzxvdXRmaWxlLm1hZT4n

> <r_lp_tautomer_probability>
1

> <r_epik_Ionization_Penalty>
  0.0001

> <r_epik_Ionization_Penalty_Charging>
  0.0000

> <r_epik_Ionization_Penalty_Neutral>
  0.0001

> <r_epik_State_Penalty>
 -0.0000

> <r_epik_Charging_Adjusted_Penalty>
0

> <i_epik_Tot_Q>
0

> <i_epik_Tot_abs_Q>
0

> <s_lp_Force_Field>
OPLS3e

> <r_lp_Energy>
93.394691

> <b_lp_Chiralities_Consistent>
1

> <s_lp_Variant>
sdf/actives_sanitized.sdf:174-1

$$$$
sdf/actives_sanitized.sdf:175
                    3D
 Schrodinger Suite 2020-1.
 63 67  0  0  1  0            999 V2000
   -5.2711    1.6740   -0.7617 C   0  0  0  0  0  0
   -4.1499    0.9259   -1.5118 C   0  0  2  0  0  0
   -2.7780    1.6518   -1.3799 C   0  0  0  0  0  0
   -2.1035    1.5390    0.0135 C   0  0  0  0  0  0
   -0.5522    1.4583   -0.0184 C   0  0  0  0  0  0
    0.0488    0.0251   -0.1865 C   0  0  2  0  0  0
    1.5298   -0.0168   -0.0926 N   0  0  0  0  0  0
    2.3400    1.0724   -0.7174 C   0  0  0  0  0  0
    3.7815    0.6355   -1.0970 C   0  0  0  0  0  0
    4.3670   -0.1785    0.0374 C   0  0  0  0  0  0
    3.5513   -0.9895    0.7347 C   0  0  0  0  0  0
    2.1206   -1.0814    0.5443 C   0  0  0  0  0  0
    1.5100   -2.0755    0.9416 O   0  0  0  0  0  0
    5.8285   -0.3022    0.1801 C   0  0  0  0  0  0
    6.5321    0.5203    1.0746 C   0  0  0  0  0  0
    5.6338    1.8266    2.1380 Br  0  0  0  0  0  0
    7.9157    0.3946    1.2021 C   0  0  0  0  0  0
    8.6089   -0.5447    0.4421 C   0  0  0  0  0  0
    7.9209   -1.3644   -0.4512 C   0  0  0  0  0  0
    8.7960   -2.5223   -1.3887 Cl  0  0  0  0  0  0
    6.5341   -1.2447   -0.5833 C   0  0  0  0  0  0
    5.8727   -2.0455   -1.4542 F   0  0  0  0  0  0
   -0.5048   -0.6899   -1.4219 C   0  0  0  0  0  0
   -1.6872   -1.4239   -1.3122 C   0  0  0  0  0  0
   -2.3415   -1.8400   -2.4744 C   0  0  0  0  0  0
   -1.7163   -1.6233   -3.7085 C   0  0  0  0  0  0
   -0.4835   -0.9674   -3.7330 C   0  0  0  0  0  0
    0.1170   -0.4834   -2.6155 N   0  0  0  0  0  0
   -3.7080   -2.4102   -2.3749 C   0  0  0  0  0  0
   -3.8814   -3.6451   -1.7369 C   0  0  0  0  0  0
   -5.1474   -4.2130   -1.6034 C   0  0  0  0  0  0
   -5.2912   -5.4096   -0.9904 F   0  0  0  0  0  0
   -6.2640   -3.5486   -2.1038 C   0  0  0  0  0  0
   -6.1156   -2.3143   -2.7324 C   0  0  0  0  0  0
   -4.8504   -1.7313   -2.8580 C   0  0  0  0  0  0
   -4.7906   -0.4971   -3.5253 N   0  0  0  0  0  0
   -4.5225    0.7224   -3.0047 C   0  0  0  0  0  0
   -4.5757    1.7104   -3.7364 O   0  0  0  0  0  0
   -6.2212    1.1419   -0.8319 H   0  0  0  0  0  0
   -5.4273    2.6774   -1.1614 H   0  0  0  0  0  0
   -5.0368    1.7747    0.2985 H   0  0  0  0  0  0
   -4.0621   -0.0482   -1.0362 H   0  0  0  0  0  0
   -2.0964    1.2670   -2.1374 H   0  0  0  0  0  0
   -2.8863    2.7059   -1.6418 H   0  0  0  0  0  0
   -2.4024    2.4077    0.6022 H   0  0  0  0  0  0
   -2.4918    0.6826    0.5657 H   0  0  0  0  0  0
   -0.1786    2.1363   -0.7862 H   0  0  0  0  0  0
   -0.1830    1.8595    0.9265 H   0  0  0  0  0  0
   -0.3364   -0.5283    0.6725 H   0  0  0  0  0  0
    1.8077    1.5722   -1.5265 H   0  0  0  0  0  0
    2.4437    1.8306    0.0601 H   0  0  0  0  0  0
    3.7267    0.0094   -1.9888 H   0  0  0  0  0  0
    4.4028    1.4982   -1.3393 H   0  0  0  0  0  0
    3.9832   -1.6495    1.4742 H   0  0  0  0  0  0
    8.4546    1.0270    1.8924 H   0  0  0  0  0  0
    9.6802   -0.6343    0.5476 H   0  0  0  0  0  0
   -2.1590   -1.5536   -0.3487 H   0  0  0  0  0  0
   -2.1853   -1.9378   -4.6296 H   0  0  0  0  0  0
    0.0225   -0.7836   -4.6692 H   0  0  0  0  0  0
   -3.0249   -4.1741   -1.3439 H   0  0  0  0  0  0
   -7.2449   -3.9896   -2.0044 H   0  0  0  0  0  0
   -6.9917   -1.8103   -3.1154 H   0  0  0  0  0  0
   -5.0969   -0.5158   -4.4871 H   0  0  0  0  0  0
  1  2  1  0  0  0
  1 39  1  0  0  0
  1 40  1  0  0  0
  1 41  1  0  0  0
  2  3  1  0  0  0
  2 37  1  0  0  0
  2 42  1  0  0  0
  3  4  1  0  0  0
  3 43  1  0  0  0
  3 44  1  0  0  0
  4  5  1  0  0  0
  4 45  1  0  0  0
  4 46  1  0  0  0
  5  6  1  0  0  0
  5 47  1  0  0  0
  5 48  1  0  0  0
  6  7  1  0  0  0
  6 23  1  0  0  0
  6 49  1  0  0  0
  7  8  1  0  0  0
  7 12  1  0  0  0
  8  9  1  0  0  0
  8 50  1  0  0  0
  8 51  1  0  0  0
  9 10  1  0  0  0
  9 52  1  0  0  0
  9 53  1  0  0  0
 10 11  2  0  0  0
 10 14  1  0  0  0
 11 12  1  0  0  0
 11 54  1  0  0  0
 12 13  2  0  0  0
 14 15  2  0  0  0
 14 21  1  0  0  0
 15 16  1  0  0  0
 15 17  1  0  0  0
 17 18  2  0  0  0
 17 55  1  0  0  0
 18 19  1  0  0  0
 18 56  1  0  0  0
 19 20  1  0  0  0
 19 21  2  0  0  0
 21 22  1  0  0  0
 23 24  1  0  0  0
 23 28  2  0  0  0
 24 25  2  0  0  0
 24 57  1  0  0  0
 25 26  1  0  0  0
 25 29  1  0  0  0
 26 27  2  0  0  0
 26 58  1  0  0  0
 27 28  1  0  0  0
 27 59  1  0  0  0
 29 30  2  0  0  0
 29 35  1  0  0  0
 30 31  1  0  0  0
 30 60  1  0  0  0
 31 32  1  0  0  0
 31 33  2  0  0  0
 33 34  1  0  0  0
 33 61  1  0  0  0
 34 35  2  0  0  0
 34 62  1  0  0  0
 35 36  1  0  0  0
 36 37  1  0  0  0
 36 63  1  0  0  0
 37 38  2  0  0  0
M  END
> <chembl_id>
CHEMBL4111674

> <chembl_pref_name>
None

> <i_m_ct_stereo_status>
1

> <s_m_source_file>
sdf/actives_sanitized.sdf

> <i_m_source_file_index>
175

> <i_lp_mmshare_version>
49012

> <i_f3d_flags>
0

> <s_epik_input>
bjFbY0hdW2NIXWMoW2NIXWMxMiljM2MoW2NIXVtjSF1jKEYpW2NIXTMpW05IXUMoPU8pW0NASF0oW0NIM10pW0NIMl1bQ0gyXVtDSDJdW0NAQEhdMk40W0NIMl1bQ0gyXUMoPVtDSF1DND1PKWM1YyhCcilbY0hdW2NIXWMoQ2wpYzVG

> <s_epik_cmdline>
J2VwaWtfcHl0aG9uJywgJy1waHQnLCAnMC41JywgJy1waCcsICc3LjUnLCAnLW50JywgJy1tYScsICcyMDAnLCAnLWltYWUnLCAnPGluZmlsZS5tYWU+JywgJy1vbWFlJywgJzxvdXRmaWxlLm1hZT4n

> <r_lp_tautomer_probability>
1

> <r_epik_Ionization_Penalty>
  0.0001

> <r_epik_Ionization_Penalty_Charging>
  0.0000

> <r_epik_Ionization_Penalty_Neutral>
  0.0001

> <r_epik_State_Penalty>
 -0.0000

> <r_epik_Charging_Adjusted_Penalty>
0

> <i_epik_Tot_Q>
0

> <i_epik_Tot_abs_Q>
0

> <s_lp_Force_Field>
OPLS3e

> <r_lp_Energy>
86.002647

> <b_lp_Chiralities_Consistent>
1

> <s_lp_Variant>
sdf/actives_sanitized.sdf:175-1

$$$$
sdf/actives_sanitized.sdf:176
                    3D
 Schrodinger Suite 2020-1.
 67 71  0  0  1  0            999 V2000
   -5.2154    1.8462   -0.9737 C   0  0  0  0  0  0
   -4.1132    1.0056   -1.6499 C   0  0  2  0  0  0
   -2.7182    1.6921   -1.5562 C   0  0  0  0  0  0
   -2.0566    1.6508   -0.1531 C   0  0  0  0  0  0
   -0.5082    1.5252   -0.1683 C   0  0  0  0  0  0
    0.0563    0.0691   -0.2337 C   0  0  2  0  0  0
    1.5366    0.0048   -0.1378 N   0  0  0  0  0  0
    2.3665    1.0109   -0.8660 C   0  0  0  0  0  0
    3.7929    0.4984   -1.2047 C   0  0  0  0  0  0
    4.3797   -0.1811    0.0203 C   0  0  0  0  0  0
    3.5424   -0.9025    0.7922 C   0  0  0  0  0  0
    2.1108   -0.9989    0.6034 C   0  0  0  0  0  0
    1.4857   -1.9408    1.0943 O   0  0  0  0  0  0
    5.8496   -0.2952    0.2013 C   0  0  0  0  0  0
    6.4309   -0.0467    1.4575 C   0  0  0  0  0  0
    5.6647    0.3062    2.5170 F   0  0  0  0  0  0
    7.8108   -0.1419    1.6346 C   0  0  0  0  0  0
    8.6324   -0.4825    0.5642 C   0  0  0  0  0  0
    8.0757   -0.7312   -0.6885 C   0  0  0  0  0  0
    9.1095   -1.1575   -2.0061 Cl  0  0  0  0  0  0
    6.6921   -0.6387   -0.8718 C   0  0  0  0  0  0
    6.1737   -0.9029   -2.0953 F   0  0  0  0  0  0
   -0.5169   -0.7199   -1.4143 C   0  0  0  0  0  0
   -1.7251   -1.4014   -1.2566 C   0  0  0  0  0  0
   -2.3875   -1.8862   -2.3870 C   0  0  0  0  0  0
   -1.7495   -1.7893   -3.6296 C   0  0  0  0  0  0
   -0.4940   -1.1809   -3.6961 C   0  0  0  0  0  0
    0.1178   -0.6317   -2.6157 N   0  0  0  0  0  0
   -3.7735   -2.3989   -2.2516 C   0  0  0  0  0  0
   -3.9937   -3.5702   -1.5184 C   0  0  0  0  0  0
   -5.2797   -4.0763   -1.3400 C   0  0  0  0  0  0
   -6.3837   -3.4156   -1.8909 C   0  0  0  0  0  0
   -7.8121   -3.9316   -1.7254 C   0  0  0  0  0  0
   -7.9497   -5.0930   -0.9290 O   0  0  0  0  0  0
   -6.1748   -2.2425   -2.6201 C   0  0  0  0  0  0
   -4.8890   -1.7208   -2.7909 C   0  0  0  0  0  0
   -4.7817   -0.5472   -3.5545 N   0  0  0  0  0  0
   -4.4777    0.6998   -3.1274 C   0  0  0  0  0  0
   -4.4890    1.6288   -3.9342 O   0  0  0  0  0  0
   -6.1821    1.3417   -1.0136 H   0  0  0  0  0  0
   -5.3342    2.8197   -1.4521 H   0  0  0  0  0  0
   -4.9879    2.0213    0.0782 H   0  0  0  0  0  0
   -4.0640    0.0686   -1.0998 H   0  0  0  0  0  0
   -2.0453    1.2331   -2.2798 H   0  0  0  0  0  0
   -2.7889    2.7292   -1.8896 H   0  0  0  0  0  0
   -2.3338    2.5635    0.3763 H   0  0  0  0  0  0
   -2.4714    0.8429    0.4504 H   0  0  0  0  0  0
   -0.1117    2.1395   -0.9770 H   0  0  0  0  0  0
   -0.1331    1.9793    0.7503 H   0  0  0  0  0  0
   -0.3410   -0.4134    0.6619 H   0  0  0  0  0  0
    1.8412    1.4396   -1.7194 H   0  0  0  0  0  0
    2.4933    1.8395   -0.1677 H   0  0  0  0  0  0
    3.6998   -0.2293   -2.0121 H   0  0  0  0  0  0
    4.4256    1.3131   -1.5587 H   0  0  0  0  0  0
    3.9539   -1.4856    1.6043 H   0  0  0  0  0  0
    8.2456    0.0533    2.6041 H   0  0  0  0  0  0
    9.7006   -0.5526    0.7086 H   0  0  0  0  0  0
   -2.2072   -1.4380   -0.2901 H   0  0  0  0  0  0
   -2.2253   -2.1585   -4.5266 H   0  0  0  0  0  0
    0.0228   -1.0884   -4.6399 H   0  0  0  0  0  0
   -3.1581   -4.0991   -1.0825 H   0  0  0  0  0  0
   -5.4051   -4.9856   -0.7709 H   0  0  0  0  0  0
   -8.4170   -3.1386   -1.2840 H   0  0  0  0  0  0
   -8.2267   -4.1305   -2.7143 H   0  0  0  0  0  0
   -8.8815   -5.3179   -0.8756 H   0  0  0  0  0  0
   -7.0239   -1.7283   -3.0491 H   0  0  0  0  0  0
   -5.0763   -0.6336   -4.5163 H   0  0  0  0  0  0
  1  2  1  0  0  0
  1 40  1  0  0  0
  1 41  1  0  0  0
  1 42  1  0  0  0
  2  3  1  0  0  0
  2 38  1  0  0  0
  2 43  1  0  0  0
  3  4  1  0  0  0
  3 44  1  0  0  0
  3 45  1  0  0  0
  4  5  1  0  0  0
  4 46  1  0  0  0
  4 47  1  0  0  0
  5  6  1  0  0  0
  5 48  1  0  0  0
  5 49  1  0  0  0
  6  7  1  0  0  0
  6 23  1  0  0  0
  6 50  1  0  0  0
  7  8  1  0  0  0
  7 12  1  0  0  0
  8  9  1  0  0  0
  8 51  1  0  0  0
  8 52  1  0  0  0
  9 10  1  0  0  0
  9 53  1  0  0  0
  9 54  1  0  0  0
 10 11  2  0  0  0
 10 14  1  0  0  0
 11 12  1  0  0  0
 11 55  1  0  0  0
 12 13  2  0  0  0
 14 15  2  0  0  0
 14 21  1  0  0  0
 15 16  1  0  0  0
 15 17  1  0  0  0
 17 18  2  0  0  0
 17 56  1  0  0  0
 18 19  1  0  0  0
 18 57  1  0  0  0
 19 20  1  0  0  0
 19 21  2  0  0  0
 21 22  1  0  0  0
 23 24  1  0  0  0
 23 28  2  0  0  0
 24 25  2  0  0  0
 24 58  1  0  0  0
 25 26  1  0  0  0
 25 29  1  0  0  0
 26 27  2  0  0  0
 26 59  1  0  0  0
 27 28  1  0  0  0
 27 60  1  0  0  0
 29 30  2  0  0  0
 29 36  1  0  0  0
 30 31  1  0  0  0
 30 61  1  0  0  0
 31 32  2  0  0  0
 31 62  1  0  0  0
 32 33  1  0  0  0
 32 35  1  0  0  0
 33 34  1  0  0  0
 33 63  1  0  0  0
 33 64  1  0  0  0
 34 65  1  0  0  0
 35 36  2  0  0  0
 35 66  1  0  0  0
 36 37  1  0  0  0
 37 38  1  0  0  0
 37 67  1  0  0  0
 38 39  2  0  0  0
M  END
> <chembl_id>
CHEMBL4111665

> <chembl_pref_name>
None

> <i_m_ct_stereo_status>
1

> <s_m_source_file>
sdf/actives_sanitized.sdf

> <i_m_source_file_index>
176

> <i_lp_mmshare_version>
49012

> <i_f3d_flags>
0

> <s_epik_input>
bjFbY0hdW2NIXWMoW2NIXWMxMiljM2MoW2NIXWMoW2NIXVtjSF0zKVtDSDJdW09IXSlbTkhdQyg9TylbQ0BIXShbQ0gzXSlbQ0gyXVtDSDJdW0NIMl1bQ0BASF0yTjRbQ0gyXVtDSDJdQyg9W0NIXUM0PU8pYzVjKEYpW2NIXVtjSF1jKENsKWM1Rg==

> <s_epik_cmdline>
J2VwaWtfcHl0aG9uJywgJy1waHQnLCAnMC41JywgJy1waCcsICc3LjUnLCAnLW50JywgJy1tYScsICcyMDAnLCAnLWltYWUnLCAnPGluZmlsZS5tYWU+JywgJy1vbWFlJywgJzxvdXRmaWxlLm1hZT4n

> <r_lp_tautomer_probability>
1

> <r_epik_Ionization_Penalty>
  0.0002

> <r_epik_Ionization_Penalty_Charging>
  0.0000

> <r_epik_Ionization_Penalty_Neutral>
  0.0002

> <r_epik_State_Penalty>
 -0.0000

> <r_epik_Charging_Adjusted_Penalty>
0

> <i_epik_Tot_Q>
0

> <i_epik_Tot_abs_Q>
0

> <s_lp_Force_Field>
OPLS3e

> <r_lp_Energy>
95.897421

> <b_lp_Chiralities_Consistent>
1

> <s_lp_Variant>
sdf/actives_sanitized.sdf:176-1

$$$$
sdf/actives_sanitized.sdf:177
                    3D
 Schrodinger Suite 2020-1.
 71 75  0  0  1  0            999 V2000
   -3.4884    0.9644   -0.1996 C   0  0  0  0  0  0
   -2.2879    0.2068   -0.1330 O   0  0  0  0  0  0
   -1.0864    0.8178   -0.0958 C   0  0  0  0  0  0
   -0.9270    2.0402   -0.1154 O   0  0  0  0  0  0
   -0.1003   -0.1611   -0.0216 N   0  0  0  0  0  0
    1.2976   -0.0184    0.0031 C   0  0  0  0  0  0
    1.9761    1.1842   -0.2355 C   0  0  0  0  0  0
    3.3679    1.2215   -0.1994 C   0  0  0  0  0  0
    4.1199    0.0717    0.0672 C   0  0  0  0  0  0
    5.6050    0.1847    0.1032 C   0  0  0  0  0  0
    6.4298   -0.5684   -0.7437 C   0  0  0  0  0  0
    7.8132   -0.5186   -0.5619 C   0  0  0  0  0  0
    8.4002    0.2041    0.4253 N   0  0  0  0  0  0
    7.5968    0.9497    1.2292 C   0  0  0  0  0  0
    6.2114    1.0065    1.0561 C   0  0  0  0  0  0
    8.2719    1.6071    2.4340 C   0  0  2  0  0  0
    7.5397    1.3355    3.7864 C   0  0  0  0  0  0
    7.5713   -0.1253    4.3080 C   0  0  0  0  0  0
    6.6697   -1.1697    3.6042 C   0  0  0  0  0  0
    5.1505   -0.8760    3.6563 C   0  0  0  0  0  0
    4.2387   -2.0056    3.1256 C   0  0  0  0  0  0
    4.6670   -2.6191    1.8646 N   0  0  0  0  0  0
    4.1644   -2.4252    0.6295 C   0  0  0  0  0  0
    4.3376   -3.2485   -0.2666 O   0  0  0  0  0  0
    3.4359   -1.1395    0.3256 C   0  0  0  0  0  0
    2.0370   -1.1711    0.2738 C   0  0  0  0  0  0
    8.5196    3.0470    2.1845 N   0  0  0  0  0  0
    7.3888    4.0136    2.3091 C   0  0  0  0  0  0
    7.8803    5.4655    2.5476 C   0  0  0  0  0  0
    8.9546    5.7892    1.5232 C   0  0  0  0  0  0
    9.7979    4.8001    1.1640 C   0  0  0  0  0  0
    9.7086    3.4233    1.6048 C   0  0  0  0  0  0
   10.6827    2.6787    1.4815 O   0  0  0  0  0  0
    9.2505    7.1946    1.1486 C   0  0  0  0  0  0
    9.4122    7.5486   -0.2023 C   0  0  0  0  0  0
    9.2943    6.6185   -1.1798 F   0  0  0  0  0  0
    9.6815    8.8681   -0.5642 C   0  0  0  0  0  0
    9.7909    9.8537    0.4126 C   0  0  0  0  0  0
    9.6314    9.5223    1.7565 C   0  0  0  0  0  0
    9.7712   10.7579    2.9565 Cl  0  0  0  0  0  0
    9.3628    8.2002    2.1255 C   0  0  0  0  0  0
    9.2285    7.8995    3.4397 F   0  0  0  0  0  0
   -4.3478    0.2950   -0.2340 H   0  0  0  0  0  0
   -3.5090    1.5895   -1.0935 H   0  0  0  0  0  0
   -3.5940    1.6073    0.6755 H   0  0  0  0  0  0
   -0.4325   -1.1133    0.0222 H   0  0  0  0  0  0
    1.4548    2.1000   -0.4631 H   0  0  0  0  0  0
    3.8681    2.1603   -0.3898 H   0  0  0  0  0  0
    6.0057   -1.2032   -1.5082 H   0  0  0  0  0  0
    8.4725   -1.0975   -1.1917 H   0  0  0  0  0  0
    5.6022    1.6066    1.7152 H   0  0  0  0  0  0
    9.2368    1.1099    2.5559 H   0  0  0  0  0  0
    8.0301    1.9450    4.5474 H   0  0  0  0  0  0
    6.5102    1.6898    3.7699 H   0  0  0  0  0  0
    8.6021   -0.4816    4.2850 H   0  0  0  0  0  0
    7.3004   -0.1119    5.3647 H   0  0  0  0  0  0
    6.9903   -1.3019    2.5720 H   0  0  0  0  0  0
    6.8474   -2.1360    4.0784 H   0  0  0  0  0  0
    4.8635   -0.6655    4.6872 H   0  0  0  0  0  0
    4.9186    0.0364    3.1156 H   0  0  0  0  0  0
    4.2450   -2.8217    3.8489 H   0  0  0  0  0  0
    3.2068   -1.6554    3.0565 H   0  0  0  0  0  0
    5.2828   -3.4117    1.9738 H   0  0  0  0  0  0
    1.5175   -2.1026    0.4563 H   0  0  0  0  0  0
    6.9296    4.0387    1.3192 H   0  0  0  0  0  0
    6.5957    3.6828    2.9772 H   0  0  0  0  0  0
    7.0516    6.1724    2.4933 H   0  0  0  0  0  0
    8.2995    5.5203    3.5531 H   0  0  0  0  0  0
   10.6314    5.0378    0.5177 H   0  0  0  0  0  0
    9.8017    9.1290   -1.6055 H   0  0  0  0  0  0
    9.9985   10.8739    0.1242 H   0  0  0  0  0  0
  1  2  1  0  0  0
  1 43  1  0  0  0
  1 44  1  0  0  0
  1 45  1  0  0  0
  2  3  1  0  0  0
  3  4  2  0  0  0
  3  5  1  0  0  0
  5  6  1  0  0  0
  5 46  1  0  0  0
  6  7  2  0  0  0
  6 26  1  0  0  0
  7  8  1  0  0  0
  7 47  1  0  0  0
  8  9  2  0  0  0
  8 48  1  0  0  0
  9 10  1  0  0  0
  9 25  1  0  0  0
 10 11  2  0  0  0
 10 15  1  0  0  0
 11 12  1  0  0  0
 11 49  1  0  0  0
 12 13  2  0  0  0
 12 50  1  0  0  0
 13 14  1  0  0  0
 14 15  2  0  0  0
 14 16  1  0  0  0
 15 51  1  0  0  0
 16 17  1  0  0  0
 16 27  1  0  0  0
 16 52  1  0  0  0
 17 18  1  0  0  0
 17 53  1  0  0  0
 17 54  1  0  0  0
 18 19  1  0  0  0
 18 55  1  0  0  0
 18 56  1  0  0  0
 19 20  1  0  0  0
 19 57  1  0  0  0
 19 58  1  0  0  0
 20 21  1  0  0  0
 20 59  1  0  0  0
 20 60  1  0  0  0
 21 22  1  0  0  0
 21 61  1  0  0  0
 21 62  1  0  0  0
 22 23  1  0  0  0
 22 63  1  0  0  0
 23 24  2  0  0  0
 23 25  1  0  0  0
 25 26  2  0  0  0
 26 64  1  0  0  0
 27 28  1  0  0  0
 27 32  1  0  0  0
 28 29  1  0  0  0
 28 65  1  0  0  0
 28 66  1  0  0  0
 29 30  1  0  0  0
 29 67  1  0  0  0
 29 68  1  0  0  0
 30 31  2  0  0  0
 30 34  1  0  0  0
 31 32  1  0  0  0
 31 69  1  0  0  0
 32 33  2  0  0  0
 34 35  2  0  0  0
 34 41  1  0  0  0
 35 36  1  0  0  0
 35 37  1  0  0  0
 37 38  2  0  0  0
 37 70  1  0  0  0
 38 39  1  0  0  0
 38 71  1  0  0  0
 39 40  1  0  0  0
 39 41  2  0  0  0
 41 42  1  0  0  0
M  END
> <chembl_id>
CHEMBL3927413

> <chembl_pref_name>
None

> <i_m_ct_stereo_status>
1

> <s_m_source_file>
sdf/actives_sanitized.sdf

> <i_m_source_file_index>
177

> <i_lp_mmshare_version>
49012

> <i_f3d_flags>
0

> <s_epik_input>
W0NIM11PQyg9TylbTkhdYyhbY0hdW2NIXTEpW2NIXWMyQyg9TylbTkhdW0NIMl1bQ0gyXVtDSDJdW0NIMl1bQ0gyXVtDQEBIXShjKFtjSF0zKW5bY0hdW2NIXWMzYzEyKU40W0NIMl1bQ0gyXUMoPVtDSF1DND1PKWM1YyhGKVtjSF1bY0hdYyhDbCljNUY=

> <s_epik_cmdline>
J2VwaWtfcHl0aG9uJywgJy1waHQnLCAnMC41JywgJy1waCcsICc3LjUnLCAnLW50JywgJy1tYScsICcyMDAnLCAnLWltYWUnLCAnPGluZmlsZS5tYWU+JywgJy1vbWFlJywgJzxvdXRmaWxlLm1hZT4n

> <r_lp_tautomer_probability>
1

> <r_epik_Ionization_Penalty>
  0.0001

> <r_epik_Ionization_Penalty_Charging>
  0.0000

> <r_epik_Ionization_Penalty_Neutral>
  0.0001

> <r_epik_State_Penalty>
 -0.0000

> <r_epik_Charging_Adjusted_Penalty>
0

> <i_epik_Tot_Q>
0

> <i_epik_Tot_abs_Q>
0

> <s_epik_Chemistry_Notes>
This compound has an ester and may undergo hydrolysis at high or low pH.

> <s_lp_Force_Field>
OPLS3e

> <r_lp_Energy>
94.338284

> <b_lp_Chiralities_Consistent>
1

> <s_lp_Variant>
sdf/actives_sanitized.sdf:177-1

$$$$
sdf/actives_sanitized.sdf:178
                    3D
 Schrodinger Suite 2020-1.
 72 76  0  0  1  0            999 V2000
   -3.2787    1.7336   -0.1441 C   0  0  0  0  0  0
   -2.1602    0.8625   -0.2394 O   0  0  0  0  0  0
   -0.9029    1.3436   -0.1683 C   0  0  0  0  0  0
   -0.6201    2.5356   -0.0253 O   0  0  0  0  0  0
   -0.0173    0.2740   -0.2613 N   0  0  0  0  0  0
    1.3867    0.2924   -0.2594 C   0  0  0  0  0  0
    2.0323   -0.9210   -0.0181 C   0  0  0  0  0  0
    3.4240   -0.9885    0.0110 C   0  0  0  0  0  0
    4.2070    0.1525   -0.1969 C   0  0  0  0  0  0
    3.5532    1.3789   -0.4630 C   0  0  0  0  0  0
    4.2690    2.5313   -0.8317 N   0  0  0  0  0  0
    4.5252    3.6277   -0.0808 C   0  0  0  0  0  0
    5.0980    4.5860   -0.5977 O   0  0  0  0  0  0
    4.1057    3.7208    1.4121 C   0  0  2  0  0  0
    2.7613    4.4756    1.5144 C   0  0  0  0  0  0
    5.1775    4.4008    2.3342 C   0  0  0  0  0  0
    6.4162    3.5663    2.7653 C   0  0  0  0  0  0
    7.5619    3.4419    1.7240 C   0  0  0  0  0  0
    8.3690    2.0984    1.7627 C   0  0  2  0  0  0
    9.7968    2.3341    1.4405 N   0  0  0  0  0  0
   10.1273    2.9945    0.1434 C   0  0  0  0  0  0
   11.5544    2.6466   -0.3594 C   0  0  0  0  0  0
   12.5259    2.7827    0.7956 C   0  0  0  0  0  0
   12.1099    2.4527    2.0328 C   0  0  0  0  0  0
   10.7635    2.0450    2.3719 C   0  0  0  0  0  0
   10.5501    1.4476    3.4278 O   0  0  0  0  0  0
   13.9614    2.9848    0.5295 C   0  0  0  0  0  0
   14.5192    4.2734    0.5440 C   0  0  0  0  0  0
   13.4504    5.8133    0.9060 Br  0  0  0  0  0  0
   15.8802    4.4510    0.2922 C   0  0  0  0  0  0
   16.6942    3.3531    0.0226 C   0  0  0  0  0  0
   16.1503    2.0696    0.0023 C   0  0  0  0  0  0
   17.1729    0.7180   -0.3345 Cl  0  0  0  0  0  0
   14.7875    1.8843    0.2540 C   0  0  0  0  0  0
   14.2668    0.6331    0.2320 F   0  0  0  0  0  0
    7.7316    0.9803    0.9020 C   0  0  0  0  0  0
    8.4823    0.0401    0.1787 C   0  0  0  0  0  0
    7.8476   -0.8884   -0.6520 C   0  0  0  0  0  0
    6.4570   -0.8777   -0.7889 C   0  0  0  0  0  0
    5.6892    0.0503   -0.0788 C   0  0  0  0  0  0
    6.3447    0.9216    0.7832 C   0  0  0  0  0  0
    2.1562    1.4374   -0.5085 C   0  0  0  0  0  0
   -4.2022    1.1595   -0.2168 H   0  0  0  0  0  0
   -3.2720    2.4699   -0.9491 H   0  0  0  0  0  0
   -3.2826    2.2628    0.8100 H   0  0  0  0  0  0
   -0.4366   -0.6427   -0.3168 H   0  0  0  0  0  0
    1.4593   -1.8199    0.1609 H   0  0  0  0  0  0
    3.8962   -1.9377    0.2199 H   0  0  0  0  0  0
    4.6005    2.5445   -1.7852 H   0  0  0  0  0  0
    3.9196    2.7204    1.8027 H   0  0  0  0  0  0
    1.9798    4.0011    0.9201 H   0  0  0  0  0  0
    2.8493    5.5078    1.1712 H   0  0  0  0  0  0
    2.3998    4.5009    2.5429 H   0  0  0  0  0  0
    5.5032    5.3531    1.9124 H   0  0  0  0  0  0
    4.6759    4.6774    3.2632 H   0  0  0  0  0  0
    6.8439    4.0351    3.6531 H   0  0  0  0  0  0
    6.0886    2.5936    3.1304 H   0  0  0  0  0  0
    7.1896    3.5985    0.7133 H   0  0  0  0  0  0
    8.2322    4.2872    1.8913 H   0  0  0  0  0  0
    8.2881    1.7184    2.7823 H   0  0  0  0  0  0
    9.3370    2.8755   -0.5984 H   0  0  0  0  0  0
   10.1539    4.0628    0.3640 H   0  0  0  0  0  0
   11.5572    1.6133   -0.7095 H   0  0  0  0  0  0
   11.8413    3.2778   -1.2013 H   0  0  0  0  0  0
   12.8309    2.4514    2.8387 H   0  0  0  0  0  0
   16.3076    5.4429    0.3060 H   0  0  0  0  0  0
   17.7469    3.5003   -0.1704 H   0  0  0  0  0  0
    9.5603    0.0262    0.2431 H   0  0  0  0  0  0
    8.4366   -1.6041   -1.2063 H   0  0  0  0  0  0
    5.9811   -1.5821   -1.4555 H   0  0  0  0  0  0
    5.7307    1.5882    1.3487 H   0  0  0  0  0  0
    1.6868    2.3753   -0.7618 H   0  0  0  0  0  0
  1  2  1  0  0  0
  1 43  1  0  0  0
  1 44  1  0  0  0
  1 45  1  0  0  0
  2  3  1  0  0  0
  3  4  2  0  0  0
  3  5  1  0  0  0
  5  6  1  0  0  0
  5 46  1  0  0  0
  6  7  2  0  0  0
  6 42  1  0  0  0
  7  8  1  0  0  0
  7 47  1  0  0  0
  8  9  2  0  0  0
  8 48  1  0  0  0
  9 10  1  0  0  0
  9 40  1  0  0  0
 10 11  1  0  0  0
 10 42  2  0  0  0
 11 12  1  0  0  0
 11 49  1  0  0  0
 12 13  2  0  0  0
 12 14  1  0  0  0
 14 15  1  0  0  0
 14 16  1  0  0  0
 14 50  1  0  0  0
 15 51  1  0  0  0
 15 52  1  0  0  0
 15 53  1  0  0  0
 16 17  1  0  0  0
 16 54  1  0  0  0
 16 55  1  0  0  0
 17 18  1  0  0  0
 17 56  1  0  0  0
 17 57  1  0  0  0
 18 19  1  0  0  0
 18 58  1  0  0  0
 18 59  1  0  0  0
 19 20  1  0  0  0
 19 36  1  0  0  0
 19 60  1  0  0  0
 20 21  1  0  0  0
 20 25  1  0  0  0
 21 22  1  0  0  0
 21 61  1  0  0  0
 21 62  1  0  0  0
 22 23  1  0  0  0
 22 63  1  0  0  0
 22 64  1  0  0  0
 23 24  2  0  0  0
 23 27  1  0  0  0
 24 25  1  0  0  0
 24 65  1  0  0  0
 25 26  2  0  0  0
 27 28  2  0  0  0
 27 34  1  0  0  0
 28 29  1  0  0  0
 28 30  1  0  0  0
 30 31  2  0  0  0
 30 66  1  0  0  0
 31 32  1  0  0  0
 31 67  1  0  0  0
 32 33  1  0  0  0
 32 34  2  0  0  0
 34 35  1  0  0  0
 36 37  1  0  0  0
 36 41  2  0  0  0
 37 38  2  0  0  0
 37 68  1  0  0  0
 38 39  1  0  0  0
 38 69  1  0  0  0
 39 40  2  0  0  0
 39 70  1  0  0  0
 40 41  1  0  0  0
 41 71  1  0  0  0
 42 72  1  0  0  0
M  END
> <chembl_id>
CHEMBL4111308

> <chembl_pref_name>
None

> <i_m_ct_stereo_status>
1

> <s_m_source_file>
sdf/actives_sanitized.sdf

> <i_m_source_file_index>
178

> <i_lp_mmshare_version>
49012

> <i_f3d_flags>
0

> <s_epik_input>
W0NIM11PQyg9TylbTkhdYyhbY0hdW2NIXTEpW2NIXWMoYzEyKVtOSF1DKD1PKVtDQEhdKFtDSDNdKVtDSDJdW0NIMl1bQ0gyXVtDQEBIXShjM1tjSF1bY0hdW2NIXWMyW2NIXTMpTjRbQ0gyXVtDSDJdQyg9W0NIXUM0PU8pYzVjKEJyKVtjSF1bY0hdYyhDbCljNUY=

> <s_epik_cmdline>
J2VwaWtfcHl0aG9uJywgJy1waHQnLCAnMC41JywgJy1waCcsICc3LjUnLCAnLW50JywgJy1tYScsICcyMDAnLCAnLWltYWUnLCAnPGluZmlsZS5tYWU+JywgJy1vbWFlJywgJzxvdXRmaWxlLm1hZT4n

> <r_lp_tautomer_probability>
1

> <r_epik_Ionization_Penalty>
  0.0000

> <r_epik_Ionization_Penalty_Charging>
  0.0000

> <r_epik_Ionization_Penalty_Neutral>
  0.0000

> <r_epik_State_Penalty>
 -0.0000

> <r_epik_Charging_Adjusted_Penalty>
0

> <i_epik_Tot_Q>
0

> <i_epik_Tot_abs_Q>
0

> <s_epik_Chemistry_Notes>
This compound has an ester and may undergo hydrolysis at high or low pH.

> <s_lp_Force_Field>
OPLS3e

> <r_lp_Energy>
93.372238

> <b_lp_Chiralities_Consistent>
1

> <s_lp_Variant>
sdf/actives_sanitized.sdf:178-1

$$$$
sdf/actives_sanitized.sdf:179
                    3D
 Schrodinger Suite 2020-1.
 70 74  0  0  1  0            999 V2000
   -9.5438   -1.8591   -0.2443 C   0  0  0  0  0  0
   -8.3892   -1.5945    0.7436 C   0  0  2  0  0  0
   -7.0184   -2.0652    0.1741 C   0  0  0  0  0  0
   -6.4316   -1.1706   -0.9500 C   0  0  0  0  0  0
   -4.8816   -1.0694   -0.9556 C   0  0  0  0  0  0
   -4.2651    0.0433   -0.0461 C   0  0  2  0  0  0
   -2.7886    0.1493   -0.1616 N   0  0  0  0  0  0
   -1.9671   -1.0963   -0.2421 C   0  0  0  0  0  0
   -0.5196   -0.9136    0.2891 C   0  0  0  0  0  0
    0.0457    0.3835   -0.2543 C   0  0  0  0  0  0
   -0.7853    1.4303   -0.4087 C   0  0  0  0  0  0
   -2.2098    1.3954   -0.1588 C   0  0  0  0  0  0
   -2.8241    2.4430    0.0504 O   0  0  0  0  0  0
    1.5099    0.5800   -0.3500 C   0  0  0  0  0  0
    2.1021    0.6104   -1.6224 C   0  0  0  0  0  0
    1.3335    0.4830   -2.7319 F   0  0  0  0  0  0
    3.4832    0.7657   -1.7599 C   0  0  0  0  0  0
    4.2109    0.8079   -3.3265 Cl  0  0  0  0  0  0
    4.2863    0.8793   -0.6289 C   0  0  0  0  0  0
    3.7149    0.8456    0.6398 C   0  0  0  0  0  0
    2.3253    0.7098    0.7946 C   0  0  0  0  0  0
    1.7178    0.6653    2.0673 N   0  0  0  0  0  0
    2.1096    1.2762    3.2082 C   0  0  0  0  0  0
    3.0738    2.0407    3.2866 O   0  0  0  0  0  0
    1.2263    1.0576    4.4498 C   0  0  0  0  0  0
    0.4390   -0.0126    4.3059 F   0  0  0  0  0  0
    1.9959    0.8947    5.5274 F   0  0  0  0  0  0
    0.4618    2.1345    4.6307 F   0  0  0  0  0  0
   -4.7574   -0.0520    1.4017 C   0  0  0  0  0  0
   -5.9553    0.5704    1.7588 C   0  0  0  0  0  0
   -6.5440    0.2627    2.9881 C   0  0  0  0  0  0
   -5.8414   -0.5570    3.8798 C   0  0  0  0  0  0
   -4.5986   -1.0634    3.4929 C   0  0  0  0  0  0
   -4.0601   -0.8390    2.2671 N   0  0  0  0  0  0
   -7.9210    0.7365    3.2748 C   0  0  0  0  0  0
   -8.1466    2.1110    3.4231 C   0  0  0  0  0  0
   -9.4250    2.6057    3.6755 C   0  0  0  0  0  0
  -10.5021    1.7299    3.7809 C   0  0  0  0  0  0
  -10.3021    0.3599    3.6268 C   0  0  0  0  0  0
   -9.0250   -0.1432    3.3577 C   0  0  0  0  0  0
   -8.9113   -1.5375    3.2358 N   0  0  0  0  0  0
   -8.6712   -2.2596    2.1173 C   0  0  0  0  0  0
   -8.6751   -3.4881    2.1850 O   0  0  0  0  0  0
  -10.4950   -1.4967    0.1490 H   0  0  0  0  0  0
   -9.6604   -2.9230   -0.4567 H   0  0  0  0  0  0
   -9.3748   -1.3503   -1.1936 H   0  0  0  0  0  0
   -8.3445   -0.5161    0.8784 H   0  0  0  0  0  0
   -6.2977   -2.1325    0.9885 H   0  0  0  0  0  0
   -7.0963   -3.0920   -0.1880 H   0  0  0  0  0  0
   -6.7652   -1.5725   -1.9078 H   0  0  0  0  0  0
   -6.8525   -0.1654   -0.9088 H   0  0  0  0  0  0
   -4.4656   -2.0491   -0.7202 H   0  0  0  0  0  0
   -4.5700   -0.8626   -1.9805 H   0  0  0  0  0  0
   -4.6829    0.9729   -0.4379 H   0  0  0  0  0  0
   -2.4806   -1.9585    0.1830 H   0  0  0  0  0  0
   -1.8807   -1.3147   -1.3074 H   0  0  0  0  0  0
   -0.5673   -0.8574    1.3774 H   0  0  0  0  0  0
    0.1066   -1.7681    0.0303 H   0  0  0  0  0  0
   -0.3696    2.3844   -0.7019 H   0  0  0  0  0  0
    5.3562    0.9879   -0.7310 H   0  0  0  0  0  0
    4.3708    0.9140    1.4944 H   0  0  0  0  0  0
    0.8327    0.1802    2.0964 H   0  0  0  0  0  0
   -6.4872    1.1793    1.0420 H   0  0  0  0  0  0
   -6.2579   -0.8112    4.8437 H   0  0  0  0  0  0
   -4.0321   -1.6981    4.1581 H   0  0  0  0  0  0
   -7.3218    2.8050    3.3465 H   0  0  0  0  0  0
   -9.5795    3.6684    3.7910 H   0  0  0  0  0  0
  -11.4920    2.1125    3.9811 H   0  0  0  0  0  0
  -11.1478   -0.3079    3.7105 H   0  0  0  0  0  0
   -9.1531   -2.0606    4.0647 H   0  0  0  0  0  0
  1  2  1  0  0  0
  1 44  1  0  0  0
  1 45  1  0  0  0
  1 46  1  0  0  0
  2  3  1  0  0  0
  2 42  1  0  0  0
  2 47  1  0  0  0
  3  4  1  0  0  0
  3 48  1  0  0  0
  3 49  1  0  0  0
  4  5  1  0  0  0
  4 50  1  0  0  0
  4 51  1  0  0  0
  5  6  1  0  0  0
  5 52  1  0  0  0
  5 53  1  0  0  0
  6  7  1  0  0  0
  6 29  1  0  0  0
  6 54  1  0  0  0
  7  8  1  0  0  0
  7 12  1  0  0  0
  8  9  1  0  0  0
  8 55  1  0  0  0
  8 56  1  0  0  0
  9 10  1  0  0  0
  9 57  1  0  0  0
  9 58  1  0  0  0
 10 11  2  0  0  0
 10 14  1  0  0  0
 11 12  1  0  0  0
 11 59  1  0  0  0
 12 13  2  0  0  0
 14 15  2  0  0  0
 14 21  1  0  0  0
 15 16  1  0  0  0
 15 17  1  0  0  0
 17 18  1  0  0  0
 17 19  2  0  0  0
 19 20  1  0  0  0
 19 60  1  0  0  0
 20 21  2  0  0  0
 20 61  1  0  0  0
 21 22  1  0  0  0
 22 23  1  0  0  0
 22 62  1  0  0  0
 23 24  2  0  0  0
 23 25  1  0  0  0
 25 26  1  0  0  0
 25 27  1  0  0  0
 25 28  1  0  0  0
 29 30  1  0  0  0
 29 34  2  0  0  0
 30 31  2  0  0  0
 30 63  1  0  0  0
 31 32  1  0  0  0
 31 35  1  0  0  0
 32 33  2  0  0  0
 32 64  1  0  0  0
 33 34  1  0  0  0
 33 65  1  0  0  0
 35 36  2  0  0  0
 35 40  1  0  0  0
 36 37  1  0  0  0
 36 66  1  0  0  0
 37 38  2  0  0  0
 37 67  1  0  0  0
 38 39  1  0  0  0
 38 68  1  0  0  0
 39 40  2  0  0  0
 39 69  1  0  0  0
 40 41  1  0  0  0
 41 42  1  0  0  0
 41 70  1  0  0  0
 42 43  2  0  0  0
M  END
> <chembl_id>
CHEMBL4110980

> <chembl_pref_name>
None

> <i_m_ct_stereo_status>
1

> <s_m_source_file>
sdf/actives_sanitized.sdf

> <i_m_source_file_index>
179

> <i_lp_mmshare_version>
49012

> <i_f3d_flags>
0

> <s_epik_input>
bjFbY0hdW2NIXWMoW2NIXWMxMiljM2MoW2NIXVtjSF1bY0hdW2NIXTMpW05IXUMoPU8pW0NASF0oW0NIM10pW0NIMl1bQ0gyXVtDSDJdW0NAQEhdMk40W0NIMl1bQ0gyXUMoPVtDSF1DND1PKWM1YyhGKWMoQ2wpW2NIXVtjSF1jNVtOSF1DKD1PKUMoRikoRilG

> <s_epik_cmdline>
J2VwaWtfcHl0aG9uJywgJy1waHQnLCAnMC41JywgJy1waCcsICc3LjUnLCAnLW50JywgJy1tYScsICcyMDAnLCAnLWltYWUnLCAnPGluZmlsZS5tYWU+JywgJy1vbWFlJywgJzxvdXRmaWxlLm1hZT4n

> <r_lp_tautomer_probability>
1

> <r_epik_Ionization_Penalty>
  0.0001

> <r_epik_Ionization_Penalty_Charging>
  0.0000

> <r_epik_Ionization_Penalty_Neutral>
  0.0001

> <r_epik_State_Penalty>
 -0.0000

> <r_epik_Charging_Adjusted_Penalty>
0

> <i_epik_Tot_Q>
0

> <i_epik_Tot_abs_Q>
0

> <s_lp_Force_Field>
OPLS3e

> <r_lp_Energy>
107.509018

> <b_lp_Chiralities_Consistent>
1

> <s_lp_Variant>
sdf/actives_sanitized.sdf:179-1

$$$$
sdf/actives_sanitized.sdf:180
                    3D
 Schrodinger Suite 2020-1.
 73 77  0  0  1  0            999 V2000
  -11.2757   -0.8687   -4.4242 C   0  0  0  0  0  0
   -9.9929   -0.2807   -4.2564 O   0  0  0  0  0  0
   -8.9055   -1.0459   -4.0324 C   0  0  0  0  0  0
   -8.9236   -2.2766   -3.9594 O   0  0  0  0  0  0
   -7.8033   -0.2086   -3.8909 N   0  0  0  0  0  0
   -6.4549   -0.5407   -3.6786 C   0  0  0  0  0  0
   -5.9303   -1.8365   -3.7950 C   0  0  0  0  0  0
   -4.5739   -2.0688   -3.5721 C   0  0  0  0  0  0
   -3.7128   -1.0240   -3.2226 C   0  0  0  0  0  0
   -4.2382    0.2838   -3.1225 C   0  0  0  0  0  0
   -3.3967    1.3925   -2.9230 N   0  0  0  0  0  0
   -3.2245    2.1241   -1.7983 C   0  0  0  0  0  0
   -2.5016    3.1187   -1.8391 O   0  0  0  0  0  0
   -3.9149    1.7544   -0.4579 C   0  0  2  0  0  0
   -5.2079    2.5863   -0.3081 C   0  0  0  0  0  0
   -3.0014    1.9522    0.8026 C   0  0  0  0  0  0
   -1.9236    0.8762    1.1124 C   0  0  0  0  0  0
   -0.6063    0.9502    0.2920 C   0  0  0  0  0  0
    0.0647   -0.4305   -0.0242 C   0  0  2  0  0  0
    1.5444   -0.3500    0.0509 N   0  0  0  0  0  0
    2.2367    0.7029   -0.7491 C   0  0  0  0  0  0
    3.6993    0.3226   -1.1030 C   0  0  0  0  0  0
    4.3813   -0.2116    0.1419 C   0  0  0  0  0  0
    3.6530   -0.9471    1.0040 C   0  0  0  0  0  0
    2.2317   -1.1943    0.8874 C   0  0  0  0  0  0
    1.7177   -2.1312    1.5008 O   0  0  0  0  0  0
    5.8618   -0.1914    0.2365 C   0  0  0  0  0  0
    6.5794   -1.3737   -0.0163 C   0  0  0  0  0  0
    5.9198   -2.5191   -0.3176 F   0  0  0  0  0  0
    7.9756   -1.3843    0.0321 C   0  0  0  0  0  0
    8.8539   -2.8407   -0.2738 Cl  0  0  0  0  0  0
    8.6710   -0.2145    0.3248 C   0  0  0  0  0  0
    7.9766    0.9676    0.5654 C   0  0  0  0  0  0
    6.5787    0.9932    0.5198 C   0  0  0  0  0  0
    5.9128    2.2673    0.7890 C   0  0  0  0  0  0
    5.3450    3.3263    1.0084 C   0  0  0  0  0  0
   -0.4591   -1.0440   -1.3433 C   0  0  0  0  0  0
   -1.8147   -0.9547   -1.6483 C   0  0  0  0  0  0
   -2.2908   -1.3166   -2.9034 C   0  0  0  0  0  0
   -1.3938   -1.8984   -3.8058 C   0  0  0  0  0  0
   -0.0548   -2.0334   -3.4230 C   0  0  0  0  0  0
    0.4217   -1.6007   -2.2242 N   0  0  0  0  0  0
   -5.5974    0.5141   -3.3585 C   0  0  0  0  0  0
  -12.0166   -0.0921   -4.6142 H   0  0  0  0  0  0
  -11.5762   -1.4126   -3.5276 H   0  0  0  0  0  0
  -11.2844   -1.5598   -5.2684 H   0  0  0  0  0  0
   -7.9962    0.7809   -3.9419 H   0  0  0  0  0  0
   -6.5469   -2.6797   -4.0622 H   0  0  0  0  0  0
   -4.1947   -3.0775   -3.6523 H   0  0  0  0  0  0
   -2.8384    1.6542   -3.7226 H   0  0  0  0  0  0
   -4.2280    0.7109   -0.4837 H   0  0  0  0  0  0
   -5.8872    2.4411   -1.1483 H   0  0  0  0  0  0
   -4.9957    3.6548   -0.2416 H   0  0  0  0  0  0
   -5.7568    2.3038    0.5911 H   0  0  0  0  0  0
   -2.5427    2.9427    0.7981 H   0  0  0  0  0  0
   -3.6554    1.9651    1.6762 H   0  0  0  0  0  0
   -1.6463    0.9764    2.1632 H   0  0  0  0  0  0
   -2.3779   -0.1126    1.0711 H   0  0  0  0  0  0
   -0.7585    1.4914   -0.6403 H   0  0  0  0  0  0
    0.0821    1.5830    0.8550 H   0  0  0  0  0  0
   -0.2940   -1.1184    0.7430 H   0  0  0  0  0  0
    1.6368    1.0406   -1.5947 H   0  0  0  0  0  0
    2.3108    1.5678   -0.0882 H   0  0  0  0  0  0
    3.6779   -0.4617   -1.8609 H   0  0  0  0  0  0
    4.2344    1.1724   -1.5276 H   0  0  0  0  0  0
    4.1577   -1.4228    1.8332 H   0  0  0  0  0  0
    9.7506   -0.2192    0.3631 H   0  0  0  0  0  0
    8.5391    1.8640    0.7882 H   0  0  0  0  0  0
    4.8456    4.2495    1.2000 H   0  0  0  0  0  0
   -2.5124   -0.5454   -0.9474 H   0  0  0  0  0  0
   -1.7188   -2.2140   -4.7865 H   0  0  0  0  0  0
    0.6676   -2.4696   -4.0968 H   0  0  0  0  0  0
   -5.9839    1.5228   -3.3086 H   0  0  0  0  0  0
  1  2  1  0  0  0
  1 44  1  0  0  0
  1 45  1  0  0  0
  1 46  1  0  0  0
  2  3  1  0  0  0
  3  4  2  0  0  0
  3  5  1  0  0  0
  5  6  1  0  0  0
  5 47  1  0  0  0
  6  7  2  0  0  0
  6 43  1  0  0  0
  7  8  1  0  0  0
  7 48  1  0  0  0
  8  9  2  0  0  0
  8 49  1  0  0  0
  9 10  1  0  0  0
  9 39  1  0  0  0
 10 11  1  0  0  0
 10 43  2  0  0  0
 11 12  1  0  0  0
 11 50  1  0  0  0
 12 13  2  0  0  0
 12 14  1  0  0  0
 14 15  1  0  0  0
 14 16  1  0  0  0
 14 51  1  0  0  0
 15 52  1  0  0  0
 15 53  1  0  0  0
 15 54  1  0  0  0
 16 17  1  0  0  0
 16 55  1  0  0  0
 16 56  1  0  0  0
 17 18  1  0  0  0
 17 57  1  0  0  0
 17 58  1  0  0  0
 18 19  1  0  0  0
 18 59  1  0  0  0
 18 60  1  0  0  0
 19 20  1  0  0  0
 19 37  1  0  0  0
 19 61  1  0  0  0
 20 21  1  0  0  0
 20 25  1  0  0  0
 21 22  1  0  0  0
 21 62  1  0  0  0
 21 63  1  0  0  0
 22 23  1  0  0  0
 22 64  1  0  0  0
 22 65  1  0  0  0
 23 24  2  0  0  0
 23 27  1  0  0  0
 24 25  1  0  0  0
 24 66  1  0  0  0
 25 26  2  0  0  0
 27 28  2  0  0  0
 27 34  1  0  0  0
 28 29  1  0  0  0
 28 30  1  0  0  0
 30 31  1  0  0  0
 30 32  2  0  0  0
 32 33  1  0  0  0
 32 67  1  0  0  0
 33 34  2  0  0  0
 33 68  1  0  0  0
 34 35  1  0  0  0
 35 36  3  0  0  0
 36 69  1  0  0  0
 37 38  1  0  0  0
 37 42  2  0  0  0
 38 39  2  0  0  0
 38 70  1  0  0  0
 39 40  1  0  0  0
 40 41  2  0  0  0
 40 71  1  0  0  0
 41 42  1  0  0  0
 41 72  1  0  0  0
 43 73  1  0  0  0
M  END
> <chembl_id>
CHEMBL4107808

> <chembl_pref_name>
None

> <i_m_ct_stereo_status>
1

> <s_m_source_file>
sdf/actives_sanitized.sdf

> <i_m_source_file_index>
180

> <i_lp_mmshare_version>
49012

> <i_f3d_flags>
0

> <s_epik_input>
W0NIM11PQyg9TylbTkhdYyhbY0hdW2NIXTEpW2NIXWMoYzEyKVtOSF1DKD1PKVtDQEhdKFtDSDNdKVtDSDJdW0NIMl1bQ0gyXVtDQEBIXShjM1tjSF1jMltjSF1bY0hdbjMpTjRbQ0gyXVtDSDJdQyg9W0NIXUM0PU8pYzVjKEYpYyhDbClbY0hdW2NIXWM1QyNbQ0hd

> <s_epik_cmdline>
J2VwaWtfcHl0aG9uJywgJy1waHQnLCAnMC41JywgJy1waCcsICc3LjUnLCAnLW50JywgJy1tYScsICcyMDAnLCAnLWltYWUnLCAnPGluZmlsZS5tYWU+JywgJy1vbWFlJywgJzxvdXRmaWxlLm1hZT4n

> <r_lp_tautomer_probability>
1

> <r_epik_Ionization_Penalty>
  0.0001

> <r_epik_Ionization_Penalty_Charging>
  0.0000

> <r_epik_Ionization_Penalty_Neutral>
  0.0001

> <r_epik_State_Penalty>
 -0.0000

> <r_epik_Charging_Adjusted_Penalty>
0

> <i_epik_Tot_Q>
0

> <i_epik_Tot_abs_Q>
0

> <s_epik_Chemistry_Notes>
This compound has an ester and may undergo hydrolysis at high or low pH.

> <s_lp_Force_Field>
OPLS3e

> <r_lp_Energy>
97.700608

> <b_lp_Chiralities_Consistent>
1

> <s_lp_Variant>
sdf/actives_sanitized.sdf:180-1

$$$$
sdf/actives_sanitized.sdf:181
                    3D
 Schrodinger Suite 2020-1.
 71 75  0  0  1  0            999 V2000
   -1.1951    3.3527   -2.9640 C   0  0  0  0  0  0
   -2.5716    2.7716   -2.5717 C   0  0  2  0  0  0
   -3.6488    3.1824   -3.6371 C   0  0  0  0  0  0
   -4.9582    2.3496   -3.7307 C   0  0  0  0  0  0
   -6.0559    2.6576   -2.6755 C   0  0  0  0  0  0
   -6.9277    1.4307   -2.2276 C   0  0  2  0  0  0
   -8.3691    1.7588   -2.0779 N   0  0  0  0  0  0
   -9.3358    0.8313   -2.7273 C   0  0  0  0  0  0
  -10.7080    1.5055   -2.9897 C   0  0  0  0  0  0
  -11.1647    2.1987   -1.7163 C   0  0  0  0  0  0
  -10.2215    2.7760   -0.9438 C   0  0  0  0  0  0
   -8.7929    2.7023   -1.1695 C   0  0  0  0  0  0
   -8.0379    3.4782   -0.5824 O   0  0  0  0  0  0
  -12.6035    2.4810   -1.4771 C   0  0  0  0  0  0
  -13.4306    2.9660   -2.5058 C   0  0  0  0  0  0
  -12.9341    3.2165   -3.7399 F   0  0  0  0  0  0
  -14.7824    3.2173   -2.2713 C   0  0  0  0  0  0
  -15.3304    2.9901   -1.0122 C   0  0  0  0  0  0
  -14.5276    2.5077    0.0189 C   0  0  0  0  0  0
  -15.2234    2.2248    1.5751 Cl  0  0  0  0  0  0
  -13.1721    2.2525   -0.2105 C   0  0  0  0  0  0
  -12.4134    1.7639    0.8009 F   0  0  0  0  0  0
   -6.3007    0.6521   -1.0454 C   0  0  0  0  0  0
   -4.9191    0.4926   -0.9899 C   0  0  0  0  0  0
   -4.3009   -0.0331    0.1387 C   0  0  0  0  0  0
   -5.1163   -0.5146    1.1694 C   0  0  0  0  0  0
   -6.5045   -0.3991    1.0328 C   0  0  0  0  0  0
   -7.0991    0.1827   -0.0442 N   0  0  0  0  0  0
   -2.8142   -0.0253    0.1887 C   0  0  0  0  0  0
   -2.1239   -1.2284    0.3759 C   0  0  0  0  0  0
   -0.7306   -1.2679    0.3401 C   0  0  0  0  0  0
   -0.0038   -0.0976    0.1168 C   0  0  0  0  0  0
    1.4167   -0.1195    0.1015 N   0  0  0  0  0  0
    2.1838   -0.8889   -0.6771 C   0  0  0  0  0  0
    3.4997   -0.8016   -0.5514 N   0  3  0  0  0  0
    1.6954   -1.7346   -1.5795 N   0  0  0  0  0  0
   -0.6712    1.1170   -0.0398 C   0  0  0  0  0  0
   -2.0696    1.1609   -0.0137 C   0  0  0  0  0  0
   -2.6984    2.4184   -0.0535 N   0  0  0  0  0  0
   -2.9166    3.2159   -1.1245 C   0  0  0  0  0  0
   -3.4010    4.3325   -0.9472 O   0  0  0  0  0  0
   -0.4114    3.0538   -2.2677 H   0  0  0  0  0  0
   -1.2102    4.4438   -2.9882 H   0  0  0  0  0  0
   -0.8870    3.0070   -3.9514 H   0  0  0  0  0  0
   -2.4641    1.6876   -2.6057 H   0  0  0  0  0  0
   -3.8932    4.2427   -3.5511 H   0  0  0  0  0  0
   -3.1809    3.0951   -4.6192 H   0  0  0  0  0  0
   -5.4020    2.5349   -4.7102 H   0  0  0  0  0  0
   -4.7108    1.2898   -3.7678 H   0  0  0  0  0  0
   -5.6201    3.1197   -1.7916 H   0  0  0  0  0  0
   -6.6942    3.4383   -3.0932 H   0  0  0  0  0  0
   -6.8748    0.7235   -3.0562 H   0  0  0  0  0  0
   -8.9112    0.2953   -3.5766 H   0  0  0  0  0  0
   -9.5429    0.0651   -1.9782 H   0  0  0  0  0  0
  -10.5757    2.2429   -3.7826 H   0  0  0  0  0  0
  -11.4419    0.7758   -3.3332 H   0  0  0  0  0  0
  -10.5352    3.3645   -0.0929 H   0  0  0  0  0  0
  -15.4073    3.5936   -3.0679 H   0  0  0  0  0  0
  -16.3782    3.1881   -0.8391 H   0  0  0  0  0  0
   -4.2942    0.8253   -1.7918 H   0  0  0  0  0  0
   -4.6877   -0.9481    2.0612 H   0  0  0  0  0  0
   -7.1641   -0.7537    1.8110 H   0  0  0  0  0  0
   -2.6715   -2.1471    0.5305 H   0  0  0  0  0  0
   -0.2228   -2.2105    0.4865 H   0  0  0  0  0  0
    1.8993    0.5843    0.6414 H   0  0  0  0  0  0
    4.0876   -1.5578   -0.8720 H   0  0  0  0  0  0
    2.3224   -2.2829   -2.1505 H   0  0  0  0  0  0
    0.6959   -1.8154   -1.7005 H   0  0  0  0  0  0
   -0.1046    2.0295   -0.1628 H   0  0  0  0  0  0
   -3.0449    2.7526    0.8344 H   0  0  0  0  0  0
    3.9136    0.0205   -0.1355 H   0  0  0  0  0  0
  1  2  1  0  0  0
  1 42  1  0  0  0
  1 43  1  0  0  0
  1 44  1  0  0  0
  2  3  1  0  0  0
  2 40  1  0  0  0
  2 45  1  0  0  0
  3  4  1  0  0  0
  3 46  1  0  0  0
  3 47  1  0  0  0
  4  5  1  0  0  0
  4 48  1  0  0  0
  4 49  1  0  0  0
  5  6  1  0  0  0
  5 50  1  0  0  0
  5 51  1  0  0  0
  6  7  1  0  0  0
  6 23  1  0  0  0
  6 52  1  0  0  0
  7  8  1  0  0  0
  7 12  1  0  0  0
  8  9  1  0  0  0
  8 53  1  0  0  0
  8 54  1  0  0  0
  9 10  1  0  0  0
  9 55  1  0  0  0
  9 56  1  0  0  0
 10 11  2  0  0  0
 10 14  1  0  0  0
 11 12  1  0  0  0
 11 57  1  0  0  0
 12 13  2  0  0  0
 14 15  2  0  0  0
 14 21  1  0  0  0
 15 16  1  0  0  0
 15 17  1  0  0  0
 17 18  2  0  0  0
 17 58  1  0  0  0
 18 19  1  0  0  0
 18 59  1  0  0  0
 19 20  1  0  0  0
 19 21  2  0  0  0
 21 22  1  0  0  0
 23 24  1  0  0  0
 23 28  2  0  0  0
 24 25  2  0  0  0
 24 60  1  0  0  0
 25 26  1  0  0  0
 25 29  1  0  0  0
 26 27  2  0  0  0
 26 61  1  0  0  0
 27 28  1  0  0  0
 27 62  1  0  0  0
 29 30  2  0  0  0
 29 38  1  0  0  0
 30 31  1  0  0  0
 30 63  1  0  0  0
 31 32  2  0  0  0
 31 64  1  0  0  0
 32 33  1  0  0  0
 32 37  1  0  0  0
 33 34  1  0  0  0
 33 65  1  0  0  0
 34 35  2  0  0  0
 34 36  1  0  0  0
 35 66  1  0  0  0
 35 71  1  0  0  0
 36 67  1  0  0  0
 36 68  1  0  0  0
 37 38  2  0  0  0
 37 69  1  0  0  0
 38 39  1  0  0  0
 39 40  1  0  0  0
 39 70  1  0  0  0
 40 41  2  0  0  0
M  CHG  1  35   1
M  END
> <chembl_id>
CHEMBL4109318

> <chembl_pref_name>
None

> <i_m_ct_stereo_status>
1

> <s_m_source_file>
sdf/actives_sanitized.sdf

> <i_m_source_file_index>
181

> <i_lp_mmshare_version>
49012

> <i_f3d_flags>
0

> <s_epik_input>
W0hdXE49QyhbTkgyXSlcW05IXWMoW2NIXVtjSF0xKVtjSF1jKGMxYyhbY0hdYzIzKVtjSF1bY0hdbjMpW05IXUMoPU8pW0NASF0oW0NIM10pW0NIMl1bQ0gyXVtDSDJdW0NAQEhdMk40W0NIMl1bQ0gyXUMoPVtDSF1DND1PKWM1YyhGKVtjSF1bY0hdYyhDbCljNUY=

> <s_epik_cmdline>
J2VwaWtfcHl0aG9uJywgJy1waHQnLCAnMC41JywgJy1waCcsICc3LjUnLCAnLW50JywgJy1tYScsICcyMDAnLCAnLWltYWUnLCAnPGluZmlsZS5tYWU+JywgJy1vbWFlJywgJzxvdXRmaWxlLm1hZT4n

> <r_lp_tautomer_probability>
1

> <r_epik_Ionization_Penalty>
  0.0007

> <r_epik_Ionization_Penalty_Charging>
  0.0007

> <r_epik_Ionization_Penalty_Neutral>
  0.0001

> <r_epik_State_Penalty>
 -0.0000

> <r_epik_Charging_Adjusted_Penalty>
0.000650552269628469

> <i_epik_Tot_Q>
1

> <i_epik_Tot_abs_Q>
1

> <s_epik_Chemistry_Notes>
This compound has an imine and may undergo hydrolysis.

> <s_lp_Force_Field>
OPLS3e

> <r_lp_Energy>
94.853597

> <b_lp_Chiralities_Consistent>
1

> <s_lp_Variant>
sdf/actives_sanitized.sdf:181-1

$$$$
sdf/actives_sanitized.sdf:182
                    3D
 Schrodinger Suite 2020-1.
 64 68  0  0  1  0            999 V2000
   -5.0487    3.1088   -0.9570 C   0  0  0  0  0  0
   -3.8028    2.1949   -0.9616 C   0  0  2  0  0  0
   -2.8530    2.5889    0.2225 C   0  0  0  0  0  0
   -1.8291    1.5360    0.7249 C   0  0  0  0  0  0
   -0.5238    1.3886   -0.1021 C   0  0  0  0  0  0
    0.0617   -0.0619   -0.1738 C   0  0  2  0  0  0
    1.5436   -0.0671   -0.0865 N   0  0  0  0  0  0
    2.3150    0.8468   -0.9792 C   0  0  0  0  0  0
    3.7430    0.3196   -1.2819 C   0  0  0  0  0  0
    4.3908   -0.1236    0.0199 C   0  0  0  0  0  0
    3.6006   -0.7196    0.9366 C   0  0  0  0  0  0
    2.1676   -0.8871    0.8203 C   0  0  0  0  0  0
    1.5879   -1.7365    1.4990 O   0  0  0  0  0  0
    5.8695   -0.1722    0.1636 C   0  0  0  0  0  0
    6.4832    0.2660    1.3511 C   0  0  0  0  0  0
    5.7424    0.7528    2.3750 F   0  0  0  0  0  0
    7.8694    0.2242    1.4942 C   0  0  0  0  0  0
    8.6666   -0.2490    0.4564 C   0  0  0  0  0  0
    8.0791   -0.6814   -0.7301 C   0  0  0  0  0  0
    9.0838   -1.2655   -2.0091 Cl  0  0  0  0  0  0
    6.6888   -0.6445   -0.8786 C   0  0  0  0  0  0
    6.1428   -1.0892   -2.0359 F   0  0  0  0  0  0
   -0.4971   -0.8372   -1.3870 C   0  0  0  0  0  0
   -1.8676   -0.8152   -1.6369 C   0  0  0  0  0  0
   -2.3776   -1.3174   -2.8300 C   0  0  0  0  0  0
   -1.4980   -1.9612   -3.7078 C   0  0  0  0  0  0
   -0.1439   -2.0293   -3.3662 C   0  0  0  0  0  0
    0.3644   -1.4645   -2.2386 N   0  0  0  0  0  0
   -3.8189   -1.0723   -3.1354 C   0  0  0  0  0  0
   -4.2787    0.2596   -3.2793 C   0  0  0  0  0  0
   -3.3784    1.3400   -3.3205 N   0  0  0  0  0  0
   -3.1298    2.2590   -2.3593 C   0  0  0  0  0  0
   -2.3541    3.1821   -2.6033 O   0  0  0  0  0  0
   -5.6316    0.5220   -3.5115 C   0  0  0  0  0  0
   -6.5446   -0.5238   -3.5882 C   0  0  0  0  0  0
   -6.1103   -1.8387   -3.4511 C   0  0  0  0  0  0
   -4.7595   -2.1240   -3.2266 C   0  0  0  0  0  0
   -4.3825   -3.5274   -3.0689 C   0  0  0  0  0  0
   -4.0837   -4.6384   -2.9444 N   0  0  0  0  0  0
   -5.7530    2.8472   -1.7467 H   0  0  0  0  0  0
   -4.7803    4.1577   -1.0952 H   0  0  0  0  0  0
   -5.5920    3.0303   -0.0147 H   0  0  0  0  0  0
   -4.1624    1.1826   -0.7780 H   0  0  0  0  0  0
   -2.3432    3.5316    0.0161 H   0  0  0  0  0  0
   -3.4848    2.8105    1.0845 H   0  0  0  0  0  0
   -1.5317    1.8183    1.7363 H   0  0  0  0  0  0
   -2.3336    0.5832    0.8749 H   0  0  0  0  0  0
   -0.6616    1.7657   -1.1143 H   0  0  0  0  0  0
    0.2065    2.0707    0.3364 H   0  0  0  0  0  0
   -0.3425   -0.5917    0.6903 H   0  0  0  0  0  0
    1.7436    1.1370   -1.8616 H   0  0  0  0  0  0
    2.4499    1.7677   -0.4102 H   0  0  0  0  0  0
    3.6443   -0.5380   -1.9492 H   0  0  0  0  0  0
    4.3373    1.0768   -1.7941 H   0  0  0  0  0  0
    4.0557   -1.1435    1.8207 H   0  0  0  0  0  0
    8.3280    0.5637    2.4113 H   0  0  0  0  0  0
    9.7399   -0.2782    0.5748 H   0  0  0  0  0  0
   -2.5489   -0.3420   -0.9567 H   0  0  0  0  0  0
   -1.8502   -2.3781   -4.6402 H   0  0  0  0  0  0
    0.5646   -2.5154   -4.0205 H   0  0  0  0  0  0
   -2.8312    1.4099   -4.1663 H   0  0  0  0  0  0
   -5.9778    1.5354   -3.6546 H   0  0  0  0  0  0
   -7.5894   -0.3162   -3.7665 H   0  0  0  0  0  0
   -6.8399   -2.6344   -3.5176 H   0  0  0  0  0  0
  1  2  1  0  0  0
  1 40  1  0  0  0
  1 41  1  0  0  0
  1 42  1  0  0  0
  2  3  1  0  0  0
  2 32  1  0  0  0
  2 43  1  0  0  0
  3  4  1  0  0  0
  3 44  1  0  0  0
  3 45  1  0  0  0
  4  5  1  0  0  0
  4 46  1  0  0  0
  4 47  1  0  0  0
  5  6  1  0  0  0
  5 48  1  0  0  0
  5 49  1  0  0  0
  6  7  1  0  0  0
  6 23  1  0  0  0
  6 50  1  0  0  0
  7  8  1  0  0  0
  7 12  1  0  0  0
  8  9  1  0  0  0
  8 51  1  0  0  0
  8 52  1  0  0  0
  9 10  1  0  0  0
  9 53  1  0  0  0
  9 54  1  0  0  0
 10 11  2  0  0  0
 10 14  1  0  0  0
 11 12  1  0  0  0
 11 55  1  0  0  0
 12 13  2  0  0  0
 14 15  2  0  0  0
 14 21  1  0  0  0
 15 16  1  0  0  0
 15 17  1  0  0  0
 17 18  2  0  0  0
 17 56  1  0  0  0
 18 19  1  0  0  0
 18 57  1  0  0  0
 19 20  1  0  0  0
 19 21  2  0  0  0
 21 22  1  0  0  0
 23 24  1  0  0  0
 23 28  2  0  0  0
 24 25  2  0  0  0
 24 58  1  0  0  0
 25 26  1  0  0  0
 25 29  1  0  0  0
 26 27  2  0  0  0
 26 59  1  0  0  0
 27 28  1  0  0  0
 27 60  1  0  0  0
 29 30  2  0  0  0
 29 37  1  0  0  0
 30 31  1  0  0  0
 30 34  1  0  0  0
 31 32  1  0  0  0
 31 61  1  0  0  0
 32 33  2  0  0  0
 34 35  2  0  0  0
 34 62  1  0  0  0
 35 36  1  0  0  0
 35 63  1  0  0  0
 36 37  2  0  0  0
 36 64  1  0  0  0
 37 38  1  0  0  0
 38 39  3  0  0  0
M  END
> <chembl_id>
CHEMBL4112583

> <chembl_pref_name>
None

> <i_m_ct_stereo_status>
1

> <s_m_source_file>
sdf/actives_sanitized.sdf

> <i_m_source_file_index>
182

> <i_lp_mmshare_version>
49012

> <i_f3d_flags>
0

> <s_epik_input>
TiNDYzFbY0hdW2NIXVtjSF1jKGMxYyhbY0hdYzIzKVtjSF1bY0hdbjMpW05IXUMoPU8pW0NASF0oW0NIM10pW0NIMl1bQ0gyXVtDSDJdW0NAQEhdMk40W0NIMl1bQ0gyXUMoPVtDSF1DND1PKWM1YyhGKVtjSF1bY0hdYyhDbCljNUY=

> <s_epik_cmdline>
J2VwaWtfcHl0aG9uJywgJy1waHQnLCAnMC41JywgJy1waCcsICc3LjUnLCAnLW50JywgJy1tYScsICcyMDAnLCAnLWltYWUnLCAnPGluZmlsZS5tYWU+JywgJy1vbWFlJywgJzxvdXRmaWxlLm1hZT4n

> <r_lp_tautomer_probability>
1

> <r_epik_Ionization_Penalty>
  0.0001

> <r_epik_Ionization_Penalty_Charging>
  0.0000

> <r_epik_Ionization_Penalty_Neutral>
  0.0001

> <r_epik_State_Penalty>
 -0.0000

> <r_epik_Charging_Adjusted_Penalty>
0

> <i_epik_Tot_Q>
0

> <i_epik_Tot_abs_Q>
0

> <s_lp_Force_Field>
OPLS3e

> <r_lp_Energy>
99.825943

> <b_lp_Chiralities_Consistent>
1

> <s_lp_Variant>
sdf/actives_sanitized.sdf:182-1

$$$$
sdf/actives_sanitized.sdf:183
                    3D
 Schrodinger Suite 2020-1.
 60 64  0  0  1  0            999 V2000
   -0.3916   -0.5499   -1.5269 C   0  0  0  0  0  0
    0.0109    0.2740   -0.2944 C   0  0  1  0  0  0
    1.5404    0.4977   -0.1233 C   0  0  0  0  0  0
    1.9344    1.1913    1.1054 N   0  0  0  0  0  0
    1.9675    0.6370    2.3298 C   0  0  0  0  0  0
    2.4972    1.5392    3.4114 C   0  0  0  0  0  0
    1.6238   -0.5172    2.5851 O   0  0  0  0  0  0
   -0.7733    1.5877   -0.2029 C   0  0  0  0  0  0
   -0.7077    2.5294   -1.2379 C   0  0  0  0  0  0
   -1.4106    3.7308   -1.1446 C   0  0  0  0  0  0
   -2.1830    4.0012   -0.0153 C   0  0  0  0  0  0
   -2.2544    3.0690    1.0195 C   0  0  0  0  0  0
   -1.5534    1.8667    0.9250 C   0  0  0  0  0  0
    1.6160    2.2689    4.2327 C   0  0  0  0  0  0
    2.1179    3.1043    5.2311 C   0  0  0  0  0  0
    3.4955    3.2310    5.4371 C   0  0  0  0  0  0
    4.3707    2.5010    4.6235 C   0  0  0  0  0  0
    3.8851    1.6605    3.6216 C   0  0  0  0  0  0
    5.0472    0.7919    2.6702 Cl  0  0  0  0  0  0
    3.9874    4.0837    6.4570 N   0  0  0  0  0  0
    3.3446    4.5964    7.5567 C   0  0  0  0  0  0
    4.1516    5.3467    8.2602 N   0  0  0  0  0  0
    5.2799    5.2671    7.5724 C   0  0  0  0  0  0
    5.2516    4.5335    6.4792 N   0  0  0  0  0  0
   -0.1066    2.1748    4.0621 Cl  0  0  0  0  0  0
    6.5265    6.0076    8.0023 C   0  0  0  0  0  0
   -3.0013    3.3312    2.1157 F   0  0  0  0  0  0
    0.3791   -0.7557   -2.6205 C   0  0  0  0  0  0
   -0.0425   -1.5580   -3.7768 C   0  0  0  0  0  0
   -1.6466   -1.1164   -1.4420 N   0  0  0  0  0  0
    0.6854   -1.7176   -4.7554 O   0  0  0  0  0  0
   -2.1983   -1.9098   -2.4633 C   0  0  0  0  0  0
   -1.4405   -2.1552   -3.6398 C   0  0  0  0  0  0
   -2.0389   -2.9609   -4.6454 C   0  0  0  0  0  0
   -3.3251   -3.4802   -4.4564 C   0  0  0  0  0  0
   -4.0410   -3.2223   -3.2939 C   0  0  0  0  0  0
   -3.4812   -2.4371   -2.2950 C   0  0  0  0  0  0
   -1.3507   -3.3096   -5.9638 C   0  0  0  0  0  0
   -4.1911   -2.1934   -1.1671 F   0  0  0  0  0  0
   -0.2795   -0.3411    0.5609 H   0  0  0  0  0  0
    2.0698   -0.4559   -0.1830 H   0  0  0  0  0  0
    1.9186    1.0997   -0.9503 H   0  0  0  0  0  0
    2.2211    2.1540    1.0042 H   0  0  0  0  0  0
   -0.1099    2.3315   -2.1159 H   0  0  0  0  0  0
   -1.3552    4.4524   -1.9462 H   0  0  0  0  0  0
   -2.7257    4.9322    0.0574 H   0  0  0  0  0  0
   -1.6164    1.1523    1.7329 H   0  0  0  0  0  0
    1.4189    3.6583    5.8404 H   0  0  0  0  0  0
    5.4395    2.5755    4.7660 H   0  0  0  0  0  0
    2.3096    4.3713    7.7666 H   0  0  0  0  0  0
    7.2652    6.1157    7.2070 H   0  0  0  0  0  0
    6.9805    5.5741    8.8936 H   0  0  0  0  0  0
    6.2717    7.0279    8.2914 H   0  0  0  0  0  0
    1.3577   -0.3024   -2.6559 H   0  0  0  0  0  0
   -2.2003   -0.9532   -0.6132 H   0  0  0  0  0  0
   -3.7834   -4.0939   -5.2186 H   0  0  0  0  0  0
   -5.0324   -3.6326   -3.1688 H   0  0  0  0  0  0
   -1.9693   -3.9353   -6.6087 H   0  0  0  0  0  0
   -0.4207   -3.8477   -5.7786 H   0  0  0  0  0  0
   -1.1111   -2.4028   -6.5199 H   0  0  0  0  0  0
  1  2  1  0  0  0
  1 28  2  0  0  0
  1 30  1  0  0  0
  2  3  1  0  0  0
  2  8  1  0  0  0
  2 40  1  0  0  0
  3  4  1  0  0  0
  3 41  1  0  0  0
  3 42  1  0  0  0
  4  5  1  0  0  0
  4 43  1  0  0  0
  5  6  1  0  0  0
  5  7  2  0  0  0
  6 14  2  0  0  0
  6 18  1  0  0  0
  8  9  2  0  0  0
  8 13  1  0  0  0
  9 10  1  0  0  0
  9 44  1  0  0  0
 10 11  2  0  0  0
 10 45  1  0  0  0
 11 12  1  0  0  0
 11 46  1  0  0  0
 12 13  2  0  0  0
 12 27  1  0  0  0
 13 47  1  0  0  0
 14 15  1  0  0  0
 14 25  1  0  0  0
 15 16  2  0  0  0
 15 48  1  0  0  0
 16 17  1  0  0  0
 16 20  1  0  0  0
 17 18  2  0  0  0
 17 49  1  0  0  0
 18 19  1  0  0  0
 20 21  1  0  0  0
 20 24  1  0  0  0
 21 22  2  0  0  0
 21 50  1  0  0  0
 22 23  1  0  0  0
 23 24  2  0  0  0
 23 26  1  0  0  0
 26 51  1  0  0  0
 26 52  1  0  0  0
 26 53  1  0  0  0
 28 29  1  0  0  0
 28 54  1  0  0  0
 29 33  1  0  0  0
 29 31  2  0  0  0
 30 32  1  0  0  0
 30 55  1  0  0  0
 32 33  1  0  0  0
 32 37  2  0  0  0
 33 34  2  0  0  0
 34 35  1  0  0  0
 34 38  1  0  0  0
 35 36  2  0  0  0
 35 56  1  0  0  0
 36 37  1  0  0  0
 36 57  1  0  0  0
 37 39  1  0  0  0
 38 58  1  0  0  0
 38 59  1  0  0  0
 38 60  1  0  0  0
M  END
> <chembl_id>
CHEMBL3627900

> <chembl_pref_name>
None

> <i_m_ct_stereo_status>
1

> <s_m_source_file>
sdf/actives_sanitized.sdf

> <i_m_source_file_index>
183

> <i_lp_mmshare_version>
49012

> <i_f3d_flags>
0

> <s_epik_input>
RmMxW2NIXVtjSF1jKFtDSDNdKWMoYzEyKWMoPU8pW2NIXWMoW25IXTIpW0NASF0oYzNbY0hdW2NIXVtjSF1jKEYpW2NIXTMpW0NIMl1bTkhdQyg9TyljNGMoQ2wpW2NIXWMoW2NIXWM0Q2wpLW41W2NIXW5jKG41KVtDSDNd

> <s_epik_cmdline>
J2VwaWtfcHl0aG9uJywgJy1waHQnLCAnMC41JywgJy1waCcsICc3LjUnLCAnLW50JywgJy1tYScsICcyMDAnLCAnLWltYWUnLCAnPGluZmlsZS5tYWU+JywgJy1vbWFlJywgJzxvdXRmaWxlLm1hZT4n

> <r_lp_tautomer_probability>
1

> <r_epik_Ionization_Penalty>
  0.0037

> <r_epik_Ionization_Penalty_Charging>
  0.0037

> <r_epik_Ionization_Penalty_Neutral>
  0.0001

> <r_epik_State_Penalty>
 -0.0000

> <r_epik_Charging_Adjusted_Penalty>
0.00365383572623353

> <i_epik_Tot_Q>
0

> <i_epik_Tot_abs_Q>
0

> <s_lp_Force_Field>
OPLS3e

> <r_lp_Energy>
34.121881

> <b_lp_Chiralities_Consistent>
1

> <s_lp_Variant>
sdf/actives_sanitized.sdf:183-1

$$$$
sdf/actives_sanitized.sdf:184
                    3D
 Schrodinger Suite 2020-1.
 60 64  0  0  1  0            999 V2000
   -1.3335   -2.6147   -5.3604 C   0  0  0  0  0  0
   -2.4096   -3.1540   -4.6284 C   0  0  0  0  0  0
   -2.5782   -2.8745   -3.2655 C   0  0  0  0  0  0
   -0.3960   -1.7780   -4.7437 C   0  0  0  0  0  0
   -1.1573   -2.9283   -6.8409 C   0  0  0  0  0  0
   -3.4313   -4.0607   -5.3029 C   0  0  0  0  0  0
   -0.5476   -1.4858   -3.3828 C   0  0  0  0  0  0
   -1.6339   -2.0390   -2.6670 C   0  0  0  0  0  0
   -1.4687   -1.5514   -1.3921 N   0  0  0  0  0  0
   -0.3415   -0.7608   -1.3930 C   0  0  0  0  0  0
    0.2310   -0.7002   -2.5734 N   0  0  0  0  0  0
    0.1295   -0.0354   -0.1345 C   0  0  1  0  0  0
    1.6015    0.4566   -0.2304 C   0  0  0  0  0  0
    2.0929    1.1703    0.9503 N   0  0  0  0  0  0
    2.4470    0.5924    2.1115 C   0  0  0  0  0  0
    2.9455    1.5475    3.1654 C   0  0  0  0  0  0
    2.3890   -0.6172    2.3345 O   0  0  0  0  0  0
   -0.8333    1.0886    0.2647 C   0  0  0  0  0  0
   -1.4133    1.0925    1.5375 C   0  0  0  0  0  0
   -2.2762    2.1195    1.9096 C   0  0  0  0  0  0
   -2.5600    3.1423    1.0078 C   0  0  0  0  0  0
   -1.9884    3.1477   -0.2626 C   0  0  0  0  0  0
   -1.1240    2.1216   -0.6339 C   0  0  0  0  0  0
    4.2260    2.1365    3.0605 C   0  0  0  0  0  0
    4.6608    3.0313    4.0432 C   0  0  0  0  0  0
    3.8442    3.3567    5.1292 C   0  0  0  0  0  0
    2.5783    2.7762    5.2312 C   0  0  0  0  0  0
    2.1264    1.8793    4.2638 C   0  0  0  0  0  0
    0.5412    1.2092    4.4798 Cl  0  0  0  0  0  0
    4.2942    4.2608    6.1146 N   0  0  0  0  0  0
    5.5823    4.5149    6.5319 C   0  0  0  0  0  0
    5.6263    5.4219    7.4755 N   0  0  0  0  0  0
    4.3132    5.8128    7.7165 N   0  0  0  0  0  0
    3.5576    5.1141    6.9065 C   0  0  0  0  0  0
    5.1802    1.8193    1.9104 C   0  0  0  0  0  0
   -3.4028   -3.2869   -2.7023 H   0  0  0  0  0  0
    0.4296   -1.3630   -5.3037 H   0  0  0  0  0  0
   -0.2494   -2.4869   -7.2543 H   0  0  0  0  0  0
   -2.0086   -2.5567   -7.4120 H   0  0  0  0  0  0
   -1.1023   -4.0061   -6.9967 H   0  0  0  0  0  0
   -4.2279   -4.3679   -4.6240 H   0  0  0  0  0  0
   -2.9468   -4.9590   -5.6868 H   0  0  0  0  0  0
   -3.8932   -3.5492   -6.1479 H   0  0  0  0  0  0
   -2.0383   -1.7074   -0.5730 H   0  0  0  0  0  0
    0.1142   -0.7696    0.6734 H   0  0  0  0  0  0
    2.2653   -0.3815   -0.4539 H   0  0  0  0  0  0
    1.7035    1.1414   -1.0735 H   0  0  0  0  0  0
    2.1652    2.1741    0.8694 H   0  0  0  0  0  0
   -1.1950    0.3029    2.2416 H   0  0  0  0  0  0
   -2.7221    2.1231    2.8934 H   0  0  0  0  0  0
   -3.2297    3.9389    1.2964 H   0  0  0  0  0  0
   -2.2134    3.9447   -0.9559 H   0  0  0  0  0  0
   -0.6792    2.1308   -1.6187 H   0  0  0  0  0  0
    5.6401    3.4796    3.9544 H   0  0  0  0  0  0
    1.9367    3.0103    6.0687 H   0  0  0  0  0  0
    6.4203    3.9868    6.1016 H   0  0  0  0  0  0
    2.4824    5.1651    6.8183 H   0  0  0  0  0  0
    6.1725    2.2450    2.0640 H   0  0  0  0  0  0
    4.7833    2.1987    0.9685 H   0  0  0  0  0  0
    5.3041    0.7407    1.8066 H   0  0  0  0  0  0
  1  2  2  0  0  0
  1  4  1  0  0  0
  1  5  1  0  0  0
  2  3  1  0  0  0
  2  6  1  0  0  0
  3  8  2  0  0  0
  3 36  1  0  0  0
  4  7  2  0  0  0
  4 37  1  0  0  0
  5 38  1  0  0  0
  5 39  1  0  0  0
  5 40  1  0  0  0
  6 41  1  0  0  0
  6 42  1  0  0  0
  6 43  1  0  0  0
  7  8  1  0  0  0
  7 11  1  0  0  0
  8  9  1  0  0  0
  9 10  1  0  0  0
  9 44  1  0  0  0
 10 11  2  0  0  0
 10 12  1  0  0  0
 12 13  1  0  0  0
 12 18  1  0  0  0
 12 45  1  0  0  0
 13 14  1  0  0  0
 13 46  1  0  0  0
 13 47  1  0  0  0
 14 15  1  0  0  0
 14 48  1  0  0  0
 15 16  1  0  0  0
 15 17  2  0  0  0
 16 24  2  0  0  0
 16 28  1  0  0  0
 18 19  2  0  0  0
 18 23  1  0  0  0
 19 20  1  0  0  0
 19 49  1  0  0  0
 20 21  2  0  0  0
 20 50  1  0  0  0
 21 22  1  0  0  0
 21 51  1  0  0  0
 22 23  2  0  0  0
 22 52  1  0  0  0
 23 53  1  0  0  0
 24 25  1  0  0  0
 24 35  1  0  0  0
 25 26  2  0  0  0
 25 54  1  0  0  0
 26 27  1  0  0  0
 26 30  1  0  0  0
 27 28  2  0  0  0
 27 55  1  0  0  0
 28 29  1  0  0  0
 30 31  1  0  0  0
 30 34  1  0  0  0
 31 32  2  0  0  0
 31 56  1  0  0  0
 32 33  1  0  0  0
 33 34  2  0  0  0
 34 57  1  0  0  0
 35 58  1  0  0  0
 35 59  1  0  0  0
 35 60  1  0  0  0
M  END
> <chembl_id>
CHEMBL3627866

> <chembl_pref_name>
None

> <i_m_ct_stereo_status>
1

> <s_m_source_file>
sdf/actives_sanitized.sdf

> <i_m_source_file_index>
184

> <i_lp_mmshare_version>
49012

> <i_f3d_flags>
0

> <s_epik_input>
W2NIXTFjKFtDSDNdKWMoW0NIM10pW2NIXWMoYzEyKVtuSF1jKG4yKVtDQEhdKGMzW2NIXVtjSF1bY0hdW2NIXVtjSF0zKVtDSDJdW05IXUMoPU8pYzRjKFtDSDNdKVtjSF1jKFtjSF1jNENsKS1uNVtjSF1ubltjSF01

> <s_epik_cmdline>
J2VwaWtfcHl0aG9uJywgJy1waHQnLCAnMC41JywgJy1waCcsICc3LjUnLCAnLW50JywgJy1tYScsICcyMDAnLCAnLWltYWUnLCAnPGluZmlsZS5tYWU+JywgJy1vbWFlJywgJzxvdXRmaWxlLm1hZT4n

> <r_lp_tautomer_probability>
1

> <r_epik_Ionization_Penalty>
  0.0167

> <r_epik_Ionization_Penalty_Charging>
  0.0000

> <r_epik_Ionization_Penalty_Neutral>
  0.0167

> <r_epik_State_Penalty>
  0.0132

> <r_epik_Charging_Adjusted_Penalty>
0.013171618342122

> <i_epik_Tot_Q>
0

> <i_epik_Tot_abs_Q>
0

> <s_lp_Force_Field>
OPLS3e

> <r_lp_Energy>
33.496977

> <b_lp_Chiralities_Consistent>
1

> <s_lp_Variant>
sdf/actives_sanitized.sdf:184-1

$$$$
sdf/actives_sanitized.sdf:185
                    3D
 Schrodinger Suite 2020-1.
 57 60  0  0  1  0            999 V2000
   -0.8130    2.4532    1.1433 C   0  0  0  0  0  0
   -1.3904    3.7193    1.1889 C   0  0  0  0  0  0
   -1.7785    4.3437    0.0057 C   0  0  0  0  0  0
   -1.5927    3.7145   -1.2232 C   0  0  0  0  0  0
   -1.0146    2.4489   -1.2693 C   0  0  0  0  0  0
   -0.6247    1.8125   -0.0852 C   0  0  0  0  0  0
    0.0039    0.4170   -0.1189 C   0  0  1  0  0  0
   -0.5596   -0.3872   -1.1624 O   0  0  0  0  0  0
    1.5208    0.4997   -0.3580 C   0  0  0  0  0  0
    2.1072   -0.7891   -0.2100 O   0  0  0  0  0  0
    3.4395   -0.9611   -0.3183 C   0  0  0  0  0  0
    3.7237   -2.3090   -0.1220 N   0  0  0  0  0  0
    4.2426   -0.0521   -0.5400 O   0  0  0  0  0  0
    4.9687   -2.9597   -0.1221 C   0  0  0  0  0  0
    5.0000   -4.2391    0.4342 C   0  0  0  0  0  0
    6.1931   -4.9544    0.4768 C   0  0  0  0  0  0
    7.3685   -4.4069   -0.0373 C   0  0  0  0  0  0
    7.3334   -3.1260   -0.6102 C   0  0  0  0  0  0
    6.1416   -2.4074   -0.6564 C   0  0  0  0  0  0
    8.5047   -5.1875    0.0573 O   0  0  0  0  0  0
    9.7429   -4.6726   -0.4206 C   0  0  0  0  0  0
   -1.8594   -0.8536   -1.0664 C   0  0  0  0  0  0
   -2.7194   -0.6714    0.0269 C   0  0  0  0  0  0
   -4.0108   -1.1864    0.0199 C   0  0  0  0  0  0
   -4.4942   -1.9022   -1.0707 C   0  0  0  0  0  0
   -3.6444   -2.0943   -2.1689 C   0  0  0  0  0  0
   -2.3162   -1.5767   -2.1873 C   0  0  0  0  0  0
   -4.0206   -2.9584   -3.6499 S   0  0  0  0  0  0
   -2.4188   -2.6257   -4.2967 C   0  0  0  0  0  0
   -1.6467   -1.8981   -3.4035 C   0  0  0  0  0  0
   -2.0416   -3.0867   -5.5442 C   0  0  0  0  0  0
   -0.7821   -3.4608   -5.7296 N   0  3  0  0  0  0
   -2.9412   -3.1331   -6.5185 N   0  0  0  0  0  0
   -0.5139    1.9721    2.0634 H   0  0  0  0  0  0
   -1.5372    4.2151    2.1371 H   0  0  0  0  0  0
   -2.2270    5.3256    0.0410 H   0  0  0  0  0  0
   -1.8956    4.2062   -2.1359 H   0  0  0  0  0  0
   -0.8712    1.9659   -2.2250 H   0  0  0  0  0  0
   -0.1561   -0.0804    0.8404 H   0  0  0  0  0  0
    1.7268    0.8947   -1.3543 H   0  0  0  0  0  0
    1.9700    1.1848    0.3634 H   0  0  0  0  0  0
    2.9338   -2.8956    0.1037 H   0  0  0  0  0  0
    4.1040   -4.6848    0.8428 H   0  0  0  0  0  0
    6.2059   -5.9415    0.9158 H   0  0  0  0  0  0
    8.2199   -2.6721   -1.0262 H   0  0  0  0  0  0
    6.1547   -1.4325   -1.1177 H   0  0  0  0  0  0
   10.5282   -5.4091   -0.2514 H   0  0  0  0  0  0
   10.0276   -3.7609    0.1068 H   0  0  0  0  0  0
    9.7051   -4.4701   -1.4920 H   0  0  0  0  0  0
   -2.3987   -0.1248    0.9005 H   0  0  0  0  0  0
   -4.6491   -1.0275    0.8771 H   0  0  0  0  0  0
   -5.4995   -2.2984   -1.0649 H   0  0  0  0  0  0
   -0.6307   -1.5943   -3.6091 H   0  0  0  0  0  0
   -0.4865   -3.8012   -6.6327 H   0  0  0  0  0  0
   -2.6777   -3.4708   -7.4325 H   0  0  0  0  0  0
   -3.8882   -2.8320   -6.3392 H   0  0  0  0  0  0
   -0.1273   -3.4132   -4.9626 H   0  0  0  0  0  0
  1  2  2  0  0  0
  1  6  1  0  0  0
  1 34  1  0  0  0
  2  3  1  0  0  0
  2 35  1  0  0  0
  3  4  2  0  0  0
  3 36  1  0  0  0
  4  5  1  0  0  0
  4 37  1  0  0  0
  5  6  2  0  0  0
  5 38  1  0  0  0
  6  7  1  0  0  0
  7  8  1  0  0  0
  7  9  1  0  0  0
  7 39  1  0  0  0
  8 22  1  0  0  0
  9 10  1  0  0  0
  9 40  1  0  0  0
  9 41  1  0  0  0
 10 11  1  0  0  0
 11 12  1  0  0  0
 11 13  2  0  0  0
 12 14  1  0  0  0
 12 42  1  0  0  0
 14 15  2  0  0  0
 14 19  1  0  0  0
 15 16  1  0  0  0
 15 43  1  0  0  0
 16 17  2  0  0  0
 16 44  1  0  0  0
 17 18  1  0  0  0
 17 20  1  0  0  0
 18 19  2  0  0  0
 18 45  1  0  0  0
 19 46  1  0  0  0
 20 21  1  0  0  0
 21 47  1  0  0  0
 21 48  1  0  0  0
 21 49  1  0  0  0
 22 23  2  0  0  0
 22 27  1  0  0  0
 23 24  1  0  0  0
 23 50  1  0  0  0
 24 25  2  0  0  0
 24 51  1  0  0  0
 25 26  1  0  0  0
 25 52  1  0  0  0
 26 28  1  0  0  0
 26 27  2  0  0  0
 27 30  1  0  0  0
 28 29  1  0  0  0
 29 30  2  0  0  0
 29 31  1  0  0  0
 30 53  1  0  0  0
 31 32  2  0  0  0
 31 33  1  0  0  0
 32 54  1  0  0  0
 32 57  1  0  0  0
 33 55  1  0  0  0
 33 56  1  0  0  0
M  CHG  1  32   1
M  END
> <chembl_id>
CHEMBL596968

> <chembl_pref_name>
None

> <i_m_ct_stereo_status>
1

> <s_m_source_file>
sdf/actives_sanitized.sdf

> <i_m_source_file_index>
185

> <i_lp_mmshare_version>
49012

> <i_f3d_flags>
0

> <s_epik_input>
W0hdXE49QyhbTkgyXSlcYyhzMSlbY0hdYyhjMTIpYyhbY0hdW2NIXVtjSF0yKU9bQ0BIXShjM1tjSF1bY0hdW2NIXVtjSF1bY0hdMylbQ0gyXU9DKD1PKVtOSF1jNFtjSF1bY0hdYyhbY0hdW2NIXTQpT1tDSDNd

> <s_epik_cmdline>
J2VwaWtfcHl0aG9uJywgJy1waHQnLCAnMC41JywgJy1waCcsICc3LjUnLCAnLW50JywgJy1tYScsICcyMDAnLCAnLWltYWUnLCAnPGluZmlsZS5tYWU+JywgJy1vbWFlJywgJzxvdXRmaWxlLm1hZT4n

> <r_lp_tautomer_probability>
1

> <r_epik_Ionization_Penalty>
  0.0095

> <r_epik_Ionization_Penalty_Charging>
  0.0095

> <r_epik_Ionization_Penalty_Neutral>
  0.0000

> <r_epik_State_Penalty>
 -0.0000

> <r_epik_Charging_Adjusted_Penalty>
0.00945881282357717

> <i_epik_Tot_Q>
1

> <i_epik_Tot_abs_Q>
1

> <s_epik_Chemistry_Notes>
This compound has an ester and may undergo hydrolysis at high or low pH. This compound has an imine and may undergo hydrolysis.

> <s_lp_Force_Field>
OPLS3e

> <r_lp_Energy>
39.9517

> <b_lp_Chiralities_Consistent>
1

> <s_lp_Variant>
sdf/actives_sanitized.sdf:185-1

$$$$
sdf/actives_sanitized.sdf:186
                    3D
 Schrodinger Suite 2020-1.
 64 68  0  0  1  0            999 V2000
   -5.2915    1.6207   -0.6828 C   0  0  0  0  0  0
   -4.1577    0.9085   -1.4484 C   0  0  2  0  0  0
   -2.7852    1.6148   -1.2402 C   0  0  0  0  0  0
   -2.1453    1.4076    0.1587 C   0  0  0  0  0  0
   -0.5936    1.3328    0.1594 C   0  0  0  0  0  0
    0.0207   -0.0826   -0.0925 C   0  0  2  0  0  0
    1.5014   -0.1133    0.0133 N   0  0  0  0  0  0
    2.3023    1.0110   -0.5585 C   0  0  0  0  0  0
    3.7438    0.5987   -0.9610 C   0  0  0  0  0  0
    4.3422   -0.2485    0.1441 C   0  0  0  0  0  0
    3.5319   -1.0983    0.8032 C   0  0  0  0  0  0
    2.1020   -1.1975    0.6065 C   0  0  0  0  0  0
    1.5014   -2.2144    0.9589 O   0  0  0  0  0  0
    5.8162   -0.3664    0.2665 C   0  0  0  0  0  0
    6.4541   -1.5197   -0.2236 C   0  0  0  0  0  0
    5.7234   -2.5185   -0.7771 F   0  0  0  0  0  0
    7.8434   -1.6496   -0.1546 C   0  0  0  0  0  0
    8.6237   -3.0710   -0.7521 Cl  0  0  0  0  0  0
    8.6117   -0.6272    0.3950 C   0  0  0  0  0  0
    7.9976    0.5269    0.8734 C   0  0  0  0  0  0
    6.6076    0.6703    0.8108 C   0  0  0  0  0  0
    6.0264    1.9050    1.3352 C   0  0  0  0  0  0
    5.5651    2.8822    1.7496 N   0  0  0  0  0  0
   -0.5116   -0.7214   -1.3785 C   0  0  0  0  0  0
   -1.6972   -1.4575   -1.3350 C   0  0  0  0  0  0
   -2.3311   -1.8000   -2.5320 C   0  0  0  0  0  0
   -1.6832   -1.5111   -3.7392 C   0  0  0  0  0  0
   -0.4484   -0.8597   -3.7018 C   0  0  0  0  0  0
    0.1324   -0.4465   -2.5464 N   0  0  0  0  0  0
   -3.7001   -2.3707   -2.4930 C   0  0  0  0  0  0
   -3.8881   -3.6388   -1.9290 C   0  0  0  0  0  0
   -5.1569   -4.2103   -1.8539 C   0  0  0  0  0  0
   -5.3148   -5.4380   -1.3097 F   0  0  0  0  0  0
   -6.2618   -3.5175   -2.3415 C   0  0  0  0  0  0
   -6.0989   -2.2503   -2.8976 C   0  0  0  0  0  0
   -4.8311   -1.6632   -2.9619 C   0  0  0  0  0  0
   -4.7551   -0.3926   -3.5556 N   0  0  0  0  0  0
   -4.4960    0.7937   -2.9591 C   0  0  0  0  0  0
   -4.5302    1.8226   -3.6331 O   0  0  0  0  0  0
   -6.2398    1.0929   -0.7945 H   0  0  0  0  0  0
   -5.4411    2.6420   -1.0367 H   0  0  0  0  0  0
   -5.0753    1.6710    0.3847 H   0  0  0  0  0  0
   -4.0872   -0.0918   -1.0273 H   0  0  0  0  0  0
   -2.0888    1.2735   -2.0051 H   0  0  0  0  0  0
   -2.8804    2.6842   -1.4368 H   0  0  0  0  0  0
   -2.4618    2.2324    0.7988 H   0  0  0  0  0  0
   -2.5430    0.5138    0.6408 H   0  0  0  0  0  0
   -0.2060    2.0644   -0.5500 H   0  0  0  0  0  0
   -0.2488    1.6689    1.1385 H   0  0  0  0  0  0
   -0.3694   -0.6939    0.7239 H   0  0  0  0  0  0
    1.7658    1.5427   -1.3441 H   0  0  0  0  0  0
    2.4026    1.7339    0.2524 H   0  0  0  0  0  0
    3.6861    0.0001   -1.8712 H   0  0  0  0  0  0
    4.3541    1.4743   -1.1839 H   0  0  0  0  0  0
    3.9696   -1.7873    1.5124 H   0  0  0  0  0  0
    9.6864   -0.7243    0.4489 H   0  0  0  0  0  0
    8.6170    1.3081    1.2927 H   0  0  0  0  0  0
   -2.1875   -1.6440   -0.3902 H   0  0  0  0  0  0
   -2.1369   -1.7668   -4.6857 H   0  0  0  0  0  0
    0.0754   -0.6213   -4.6156 H   0  0  0  0  0  0
   -3.0403   -4.1909   -1.5489 H   0  0  0  0  0  0
   -7.2449   -3.9619   -2.2884 H   0  0  0  0  0  0
   -6.9661   -1.7247   -3.2722 H   0  0  0  0  0  0
   -5.0387   -0.3548   -4.5238 H   0  0  0  0  0  0
  1  2  1  0  0  0
  1 40  1  0  0  0
  1 41  1  0  0  0
  1 42  1  0  0  0
  2  3  1  0  0  0
  2 38  1  0  0  0
  2 43  1  0  0  0
  3  4  1  0  0  0
  3 44  1  0  0  0
  3 45  1  0  0  0
  4  5  1  0  0  0
  4 46  1  0  0  0
  4 47  1  0  0  0
  5  6  1  0  0  0
  5 48  1  0  0  0
  5 49  1  0  0  0
  6  7  1  0  0  0
  6 24  1  0  0  0
  6 50  1  0  0  0
  7  8  1  0  0  0
  7 12  1  0  0  0
  8  9  1  0  0  0
  8 51  1  0  0  0
  8 52  1  0  0  0
  9 10  1  0  0  0
  9 53  1  0  0  0
  9 54  1  0  0  0
 10 11  2  0  0  0
 10 14  1  0  0  0
 11 12  1  0  0  0
 11 55  1  0  0  0
 12 13  2  0  0  0
 14 15  2  0  0  0
 14 21  1  0  0  0
 15 16  1  0  0  0
 15 17  1  0  0  0
 17 18  1  0  0  0
 17 19  2  0  0  0
 19 20  1  0  0  0
 19 56  1  0  0  0
 20 21  2  0  0  0
 20 57  1  0  0  0
 21 22  1  0  0  0
 22 23  3  0  0  0
 24 25  1  0  0  0
 24 29  2  0  0  0
 25 26  2  0  0  0
 25 58  1  0  0  0
 26 27  1  0  0  0
 26 30  1  0  0  0
 27 28  2  0  0  0
 27 59  1  0  0  0
 28 29  1  0  0  0
 28 60  1  0  0  0
 30 31  2  0  0  0
 30 36  1  0  0  0
 31 32  1  0  0  0
 31 61  1  0  0  0
 32 33  1  0  0  0
 32 34  2  0  0  0
 34 35  1  0  0  0
 34 62  1  0  0  0
 35 36  2  0  0  0
 35 63  1  0  0  0
 36 37  1  0  0  0
 37 38  1  0  0  0
 37 64  1  0  0  0
 38 39  2  0  0  0
M  END
> <chembl_id>
CHEMBL4110267

> <chembl_pref_name>
None

> <i_m_ct_stereo_status>
1

> <s_m_source_file>
sdf/actives_sanitized.sdf

> <i_m_source_file_index>
186

> <i_lp_mmshare_version>
49012

> <i_f3d_flags>
0

> <s_epik_input>
bjFbY0hdW2NIXWMoW2NIXWMxMiljM2MoW2NIXVtjSF1jKEYpW2NIXTMpW05IXUMoPU8pW0NASF0oW0NIM10pW0NIMl1bQ0gyXVtDSDJdW0NAQEhdMk40W0NIMl1bQ0gyXUMoPVtDSF1DND1PKWM1YyhGKWMoQ2wpW2NIXVtjSF1jNUMjTg==

> <s_epik_cmdline>
J2VwaWtfcHl0aG9uJywgJy1waHQnLCAnMC41JywgJy1waCcsICc3LjUnLCAnLW50JywgJy1tYScsICcyMDAnLCAnLWltYWUnLCAnPGluZmlsZS5tYWU+JywgJy1vbWFlJywgJzxvdXRmaWxlLm1hZT4n

> <r_lp_tautomer_probability>
1

> <r_epik_Ionization_Penalty>
  0.0001

> <r_epik_Ionization_Penalty_Charging>
  0.0000

> <r_epik_Ionization_Penalty_Neutral>
  0.0001

> <r_epik_State_Penalty>
 -0.0000

> <r_epik_Charging_Adjusted_Penalty>
0

> <i_epik_Tot_Q>
0

> <i_epik_Tot_abs_Q>
0

> <s_lp_Force_Field>
OPLS3e

> <r_lp_Energy>
92.205261

> <b_lp_Chiralities_Consistent>
1

> <s_lp_Variant>
sdf/actives_sanitized.sdf:186-1

$$$$
sdf/actives_sanitized.sdf:187
                    3D
 Schrodinger Suite 2020-1.
 56 60  0  0  1  0            999 V2000
   -1.5922   -2.9781   -5.0902 C   0  0  0  0  0  0
   -2.9002   -2.7073   -4.6429 C   0  0  0  0  0  0
   -3.1339   -1.9869   -3.4637 C   0  0  0  0  0  0
   -0.4808   -2.5312   -4.3658 C   0  0  0  0  0  0
   -1.3497   -3.7645   -6.3723 C   0  0  0  0  0  0
   -4.1082   -3.1933   -5.4341 C   0  0  0  0  0  0
   -0.6934   -1.8083   -3.1856 C   0  0  0  0  0  0
   -2.0143   -1.5488   -2.7549 C   0  0  0  0  0  0
   -1.8455   -0.8362   -1.5914 N   0  0  0  0  0  0
   -0.4914   -0.6946   -1.3820 C   0  0  0  0  0  0
    0.2242   -1.2759   -2.3177 N   0  0  0  0  0  0
    0.0626    0.0390   -0.1594 C   0  0  1  0  0  0
    1.6154    0.0076   -0.0738 C   0  0  0  0  0  0
    2.1604    0.5915    1.1552 N   0  0  0  0  0  0
    2.5869    1.8602    1.3003 C   0  0  0  0  0  0
    2.9905    2.2570    2.6985 C   0  0  0  0  0  0
    2.5866    2.6903    0.3895 O   0  0  0  0  0  0
   -0.4945    1.4618   -0.0322 C   0  0  0  0  0  0
   -0.4755    2.3510   -1.1157 C   0  0  0  0  0  0
   -0.9526    3.6527   -0.9530 C   0  0  0  0  0  0
   -1.4350    4.0329    0.3001 C   0  0  0  0  0  0
   -1.4611    3.1937    1.3663 N   0  0  0  0  0  0
   -0.9960    1.9308    1.1889 C   0  0  0  0  0  0
    2.4804    3.4540    3.2202 C   0  0  0  0  0  0
    2.8178    3.8799    4.5031 C   0  0  0  0  0  0
    3.6892    3.1203    5.2892 C   0  0  0  0  0  0
    4.2251    1.9377    4.7686 C   0  0  0  0  0  0
    3.8922    1.5047    3.4830 C   0  0  0  0  0  0
    4.6545    0.0535    2.9154 Cl  0  0  0  0  0  0
    4.0295    3.5448    6.5918 N   0  0  0  0  0  0
    4.0598    4.8228    7.1062 C   0  0  0  0  0  0
    4.4236    4.8412    8.3641 N   0  0  0  0  0  0
    4.6514    3.5199    8.7343 N   0  0  0  0  0  0
    4.4135    2.7861    7.6762 C   0  0  0  0  0  0
   -4.1362   -1.7783   -3.1188 H   0  0  0  0  0  0
    0.5230   -2.7386   -4.7076 H   0  0  0  0  0  0
   -0.2881   -3.9006   -6.5828 H   0  0  0  0  0  0
   -1.7993   -3.2516   -7.2229 H   0  0  0  0  0  0
   -1.8075   -4.7517   -6.3044 H   0  0  0  0  0  0
   -5.0531   -2.9211   -4.9618 H   0  0  0  0  0  0
   -4.0848   -4.2787   -5.5349 H   0  0  0  0  0  0
   -4.0988   -2.7692   -6.4386 H   0  0  0  0  0  0
   -2.5467   -0.4581   -0.9710 H   0  0  0  0  0  0
   -0.2967   -0.5104    0.7131 H   0  0  0  0  0  0
    1.9587   -1.0274   -0.1078 H   0  0  0  0  0  0
    2.0512    0.4862   -0.9541 H   0  0  0  0  0  0
    2.2428   -0.0323    1.9449 H   0  0  0  0  0  0
   -0.0847    2.0399   -2.0735 H   0  0  0  0  0  0
   -0.9421    4.3508   -1.7769 H   0  0  0  0  0  0
   -1.8089    5.0326    0.4652 H   0  0  0  0  0  0
   -1.0178    1.2934    2.0608 H   0  0  0  0  0  0
    1.8008    4.0604    2.6372 H   0  0  0  0  0  0
    2.3891    4.7978    4.8780 H   0  0  0  0  0  0
    4.9181    1.3504    5.3538 H   0  0  0  0  0  0
    3.8107    5.6760    6.4927 H   0  0  0  0  0  0
    4.4828    1.7105    7.6064 H   0  0  0  0  0  0
  1  2  2  0  0  0
  1  4  1  0  0  0
  1  5  1  0  0  0
  2  3  1  0  0  0
  2  6  1  0  0  0
  3  8  2  0  0  0
  3 35  1  0  0  0
  4  7  2  0  0  0
  4 36  1  0  0  0
  5 37  1  0  0  0
  5 38  1  0  0  0
  5 39  1  0  0  0
  6 40  1  0  0  0
  6 41  1  0  0  0
  6 42  1  0  0  0
  7  8  1  0  0  0
  7 11  1  0  0  0
  8  9  1  0  0  0
  9 10  1  0  0  0
  9 43  1  0  0  0
 10 11  2  0  0  0
 10 12  1  0  0  0
 12 13  1  0  0  0
 12 18  1  0  0  0
 12 44  1  0  0  0
 13 14  1  0  0  0
 13 45  1  0  0  0
 13 46  1  0  0  0
 14 15  1  0  0  0
 14 47  1  0  0  0
 15 16  1  0  0  0
 15 17  2  0  0  0
 16 24  2  0  0  0
 16 28  1  0  0  0
 18 19  2  0  0  0
 18 23  1  0  0  0
 19 20  1  0  0  0
 19 48  1  0  0  0
 20 21  2  0  0  0
 20 49  1  0  0  0
 21 22  1  0  0  0
 21 50  1  0  0  0
 22 23  2  0  0  0
 23 51  1  0  0  0
 24 25  1  0  0  0
 24 52  1  0  0  0
 25 26  2  0  0  0
 25 53  1  0  0  0
 26 27  1  0  0  0
 26 30  1  0  0  0
 27 28  2  0  0  0
 27 54  1  0  0  0
 28 29  1  0  0  0
 30 31  1  0  0  0
 30 34  1  0  0  0
 31 32  2  0  0  0
 31 55  1  0  0  0
 32 33  1  0  0  0
 33 34  2  0  0  0
 34 56  1  0  0  0
M  END
> <chembl_id>
CHEMBL3627873

> <chembl_pref_name>
None

> <i_m_ct_stereo_status>
1

> <s_m_source_file>
sdf/actives_sanitized.sdf

> <i_m_source_file_index>
187

> <i_lp_mmshare_version>
49012

> <i_f3d_flags>
0

> <s_epik_input>
W2NIXTFjKFtDSDNdKWMoW0NIM10pW2NIXWMoYzEyKVtuSF1jKG4yKVtDQEhdKGMzW2NIXVtjSF1bY0hdbltjSF0zKVtDSDJdW05IXUMoPU8pYzRbY0hdW2NIXWMoW2NIXWM0Q2wpLW41W2NIXW5uW2NIXTU=

> <s_epik_cmdline>
J2VwaWtfcHl0aG9uJywgJy1waHQnLCAnMC41JywgJy1waCcsICc3LjUnLCAnLW50JywgJy1tYScsICcyMDAnLCAnLWltYWUnLCAnPGluZmlsZS5tYWU+JywgJy1vbWFlJywgJzxvdXRmaWxlLm1hZT4n

> <r_lp_tautomer_probability>
1

> <r_epik_Ionization_Penalty>
  0.0203

> <r_epik_Ionization_Penalty_Charging>
  0.0000

> <r_epik_Ionization_Penalty_Neutral>
  0.0203

> <r_epik_State_Penalty>
  0.0153

> <r_epik_Charging_Adjusted_Penalty>
0.0152780839803222

> <i_epik_Tot_Q>
0

> <i_epik_Tot_abs_Q>
0

> <s_lp_Force_Field>
OPLS3e

> <r_lp_Energy>
38.984226

> <b_lp_Chiralities_Consistent>
1

> <s_lp_Variant>
sdf/actives_sanitized.sdf:187-1

$$$$
sdf/actives_sanitized.sdf:188
                    3D
 Schrodinger Suite 2020-1.
 57 61  0  0  1  0            999 V2000
   -1.3189   -2.6104   -5.3484 C   0  0  0  0  0  0
   -2.3567   -3.2254   -4.6209 C   0  0  0  0  0  0
   -2.5250   -2.9915   -3.2491 C   0  0  0  0  0  0
   -0.4221   -1.7399   -4.7189 C   0  0  0  0  0  0
   -1.1426   -2.8741   -6.8387 C   0  0  0  0  0  0
   -3.3336   -4.1700   -5.3099 C   0  0  0  0  0  0
   -0.5744   -1.4920   -3.3494 C   0  0  0  0  0  0
   -1.6207   -2.1218   -2.6373 C   0  0  0  0  0  0
   -1.4674   -1.6589   -1.3512 N   0  0  0  0  0  0
   -0.3817   -0.8124   -1.3426 C   0  0  0  0  0  0
    0.1688   -0.6855   -2.5282 N   0  0  0  0  0  0
    0.0652   -0.0886   -0.0752 C   0  0  1  0  0  0
    1.5680    0.3070   -0.1132 C   0  0  0  0  0  0
    2.0536    1.0212    1.0690 N   0  0  0  0  0  0
    2.3495    0.4517    2.2500 C   0  0  0  0  0  0
    2.9070    1.4000    3.2764 C   0  0  0  0  0  0
    2.2115   -0.7446    2.5056 O   0  0  0  0  0  0
   -0.8445    1.1030    0.2443 C   0  0  0  0  0  0
   -1.5256    1.1543    1.4647 C   0  0  0  0  0  0
   -2.3421    2.2412    1.7648 C   0  0  0  0  0  0
   -2.4778    3.2772    0.8438 C   0  0  0  0  0  0
   -1.8046    3.2359   -0.3748 C   0  0  0  0  0  0
   -0.9878    2.1491   -0.6747 C   0  0  0  0  0  0
    4.2791    1.7217    3.2779 C   0  0  0  0  0  0
    4.7894    2.6094    4.2257 C   0  0  0  0  0  0
    3.9530    3.1881    5.1842 C   0  0  0  0  0  0
    2.5934    2.8639    5.1904 C   0  0  0  0  0  0
    2.0679    1.9771    4.2500 C   0  0  0  0  0  0
    0.3725    1.6261    4.3409 Cl  0  0  0  0  0  0
    4.4757    4.0904    6.1351 N   0  0  0  0  0  0
    5.7516    4.1627    6.6505 C   0  0  0  0  0  0
    5.8805    5.1358    7.5173 N   0  0  0  0  0  0
    4.6415    5.7624    7.6023 N   0  0  0  0  0  0
    3.8411    5.1276    6.7832 C   0  0  0  0  0  0
    5.3903    1.0528    2.1256 Cl  0  0  0  0  0  0
   -3.3198   -3.4630   -2.6894 H   0  0  0  0  0  0
    0.3737   -1.2661   -5.2753 H   0  0  0  0  0  0
   -0.2899   -2.3383   -7.2583 H   0  0  0  0  0  0
   -2.0353   -2.5702   -7.3861 H   0  0  0  0  0  0
   -0.9916   -3.9385   -7.0207 H   0  0  0  0  0  0
   -4.0643   -4.5914   -4.6183 H   0  0  0  0  0  0
   -2.7980   -4.9984   -5.7744 H   0  0  0  0  0  0
   -3.8753   -3.6457   -6.0977 H   0  0  0  0  0  0
   -2.0179   -1.8665   -0.5307 H   0  0  0  0  0  0
   -0.0331   -0.7971    0.7499 H   0  0  0  0  0  0
    2.1851   -0.5774   -0.2867 H   0  0  0  0  0  0
    1.7527    0.9609   -0.9666 H   0  0  0  0  0  0
    2.1843    2.0171    0.9673 H   0  0  0  0  0  0
   -1.4215    0.3559    2.1848 H   0  0  0  0  0  0
   -2.8659    2.2813    2.7084 H   0  0  0  0  0  0
   -3.1104    4.1208    1.0773 H   0  0  0  0  0  0
   -1.9144    4.0435   -1.0835 H   0  0  0  0  0  0
   -0.4651    2.1217   -1.6197 H   0  0  0  0  0  0
    5.8422    2.8512    4.2025 H   0  0  0  0  0  0
    1.9335    3.2926    5.9310 H   0  0  0  0  0  0
    6.5162    3.4641    6.3443 H   0  0  0  0  0  0
    2.8021    5.3514    6.5905 H   0  0  0  0  0  0
  1  2  2  0  0  0
  1  4  1  0  0  0
  1  5  1  0  0  0
  2  3  1  0  0  0
  2  6  1  0  0  0
  3  8  2  0  0  0
  3 36  1  0  0  0
  4  7  2  0  0  0
  4 37  1  0  0  0
  5 38  1  0  0  0
  5 39  1  0  0  0
  5 40  1  0  0  0
  6 41  1  0  0  0
  6 42  1  0  0  0
  6 43  1  0  0  0
  7  8  1  0  0  0
  7 11  1  0  0  0
  8  9  1  0  0  0
  9 10  1  0  0  0
  9 44  1  0  0  0
 10 11  2  0  0  0
 10 12  1  0  0  0
 12 13  1  0  0  0
 12 18  1  0  0  0
 12 45  1  0  0  0
 13 14  1  0  0  0
 13 46  1  0  0  0
 13 47  1  0  0  0
 14 15  1  0  0  0
 14 48  1  0  0  0
 15 16  1  0  0  0
 15 17  2  0  0  0
 16 24  2  0  0  0
 16 28  1  0  0  0
 18 19  2  0  0  0
 18 23  1  0  0  0
 19 20  1  0  0  0
 19 49  1  0  0  0
 20 21  2  0  0  0
 20 50  1  0  0  0
 21 22  1  0  0  0
 21 51  1  0  0  0
 22 23  2  0  0  0
 22 52  1  0  0  0
 23 53  1  0  0  0
 24 25  1  0  0  0
 24 35  1  0  0  0
 25 26  2  0  0  0
 25 54  1  0  0  0
 26 27  1  0  0  0
 26 30  1  0  0  0
 27 28  2  0  0  0
 27 55  1  0  0  0
 28 29  1  0  0  0
 30 31  1  0  0  0
 30 34  1  0  0  0
 31 32  2  0  0  0
 31 56  1  0  0  0
 32 33  1  0  0  0
 33 34  2  0  0  0
 34 57  1  0  0  0
M  END
> <chembl_id>
CHEMBL3627864

> <chembl_pref_name>
None

> <i_m_ct_stereo_status>
1

> <s_m_source_file>
sdf/actives_sanitized.sdf

> <i_m_source_file_index>
188

> <i_lp_mmshare_version>
49012

> <i_f3d_flags>
0

> <s_epik_input>
W2NIXTFjKFtDSDNdKWMoW0NIM10pW2NIXWMoYzEyKVtuSF1jKG4yKVtDQEhdKGMzW2NIXVtjSF1bY0hdW2NIXVtjSF0zKVtDSDJdW05IXUMoPU8pYzRjKENsKVtjSF1jKFtjSF1jNENsKS1uNVtjSF1ubltjSF01

> <s_epik_cmdline>
J2VwaWtfcHl0aG9uJywgJy1waHQnLCAnMC41JywgJy1waCcsICc3LjUnLCAnLW50JywgJy1tYScsICcyMDAnLCAnLWltYWUnLCAnPGluZmlsZS5tYWU+JywgJy1vbWFlJywgJzxvdXRmaWxlLm1hZT4n

> <r_lp_tautomer_probability>
1

> <r_epik_Ionization_Penalty>
  0.0168

> <r_epik_Ionization_Penalty_Charging>
  0.0000

> <r_epik_Ionization_Penalty_Neutral>
  0.0168

> <r_epik_State_Penalty>
  0.0132

> <r_epik_Charging_Adjusted_Penalty>
0.013171618342122

> <i_epik_Tot_Q>
0

> <i_epik_Tot_abs_Q>
0

> <s_lp_Force_Field>
OPLS3e

> <r_lp_Energy>
30.244663

> <b_lp_Chiralities_Consistent>
1

> <s_lp_Variant>
sdf/actives_sanitized.sdf:188-1

$$$$
sdf/actives_sanitized.sdf:189
                    3D
 Schrodinger Suite 2020-1.
 88 93  0  0  1  0            999 V2000
    1.0708    4.5339   -3.1039 C   0  0  0  0  0  0
    0.0115    5.4471   -2.4543 C   0  0  2  0  0  0
   -0.1899    6.7366   -3.3155 C   0  0  0  0  0  0
   -1.3216    7.7024   -2.8764 C   0  0  0  0  0  0
   -2.7277    7.3739   -3.4494 C   0  0  0  0  0  0
   -3.9397    7.6097   -2.4901 C   0  0  2  0  0  0
   -4.2695    9.0533   -2.3497 N   0  0  0  0  0  0
   -3.2884    9.9627   -1.6879 C   0  0  0  0  0  0
   -3.9641   11.2268   -1.0952 C   0  0  0  0  0  0
   -4.8654   11.8369   -2.1554 C   0  0  0  0  0  0
   -5.5279   10.9940   -2.9738 C   0  0  0  0  0  0
   -5.3809    9.5531   -2.9856 C   0  0  0  0  0  0
   -6.2456    8.8565   -3.5198 O   0  0  0  0  0  0
   -5.2302   13.2753   -2.1097 C   0  0  0  0  0  0
   -5.1991   14.0528   -3.2808 C   0  0  0  0  0  0
   -4.8279   13.5073   -4.4636 F   0  0  0  0  0  0
   -5.5341   15.4061   -3.2453 C   0  0  0  0  0  0
   -5.9015   16.0054   -2.0440 C   0  0  0  0  0  0
   -5.9351   15.2521   -0.8724 C   0  0  0  0  0  0
   -6.3946   16.0110    0.6106 Cl  0  0  0  0  0  0
   -5.6014   13.8941   -0.9022 C   0  0  0  0  0  0
   -5.6574   13.1791    0.2470 F   0  0  0  0  0  0
   -3.8056    6.8244   -1.1684 C   0  0  0  0  0  0
   -3.2660    5.5355   -1.1859 C   0  0  0  0  0  0
   -2.8966    4.9237    0.0096 C   0  0  0  0  0  0
   -3.2079    5.5628    1.2140 C   0  0  0  0  0  0
   -3.8446    6.8050    1.1666 C   0  0  0  0  0  0
   -4.1279    7.4446    0.0022 N   0  0  0  0  0  0
   -2.0913    3.6816   -0.0409 C   0  0  0  0  0  0
   -2.7314    2.4418   -0.1196 C   0  0  0  0  0  0
   -1.9924    1.2619   -0.1987 C   0  0  0  0  0  0
   -0.5963    1.2943   -0.1870 C   0  0  0  0  0  0
    0.0938    0.0716   -0.2450 N   0  0  0  0  0  0
    1.5225   -0.0556   -0.2146 C   0  0  2  0  0  0
    2.1453    0.3699   -1.4010 O   0  0  0  0  0  0
    3.5775    0.4374   -1.2930 C   0  0  2  0  0  0
    4.1317    1.0963   -2.5741 C   0  0  0  0  0  0
    3.7238    2.4459   -2.6579 O   0  0  0  0  0  0
    4.1577   -0.9827   -1.0497 C   0  0  1  0  0  0
    5.5598   -0.9470   -0.8450 O   0  0  0  0  0  0
    3.4490   -1.6510    0.1520 C   0  0  2  0  0  0
    3.8553   -2.9935    0.3567 O   0  0  0  0  0  0
    1.9102   -1.5246    0.0543 C   0  0  2  0  0  0
    1.4176   -2.3990   -1.1168 N   0  3  0  0  0  0
    0.0538    2.5333   -0.1168 C   0  0  0  0  0  0
   -0.6831    3.7204   -0.0660 C   0  0  0  0  0  0
    0.0233    4.9276    0.0350 N   0  0  0  0  0  0
    0.3991    5.7411   -0.9770 C   0  0  0  0  0  0
    1.0820    6.7326   -0.7237 O   0  0  0  0  0  0
    1.1661    3.5870   -2.5717 H   0  0  0  0  0  0
    2.0561    5.0025   -3.1182 H   0  0  0  0  0  0
    0.8059    4.2930   -4.1341 H   0  0  0  0  0  0
   -0.9216    4.8909   -2.4742 H   0  0  0  0  0  0
    0.7479    7.2952   -3.3290 H   0  0  0  0  0  0
   -0.3583    6.4583   -4.3571 H   0  0  0  0  0  0
   -1.3443    7.7571   -1.7891 H   0  0  0  0  0  0
   -1.0585    8.7115   -3.1959 H   0  0  0  0  0  0
   -2.8804    7.9464   -4.3657 H   0  0  0  0  0  0
   -2.7488    6.3410   -3.7965 H   0  0  0  0  0  0
   -4.7774    7.1048   -2.9734 H   0  0  0  0  0  0
   -2.6175    9.4423   -1.0053 H   0  0  0  0  0  0
   -2.6515   10.3348   -2.4918 H   0  0  0  0  0  0
   -4.5612   10.9163   -0.2365 H   0  0  0  0  0  0
   -3.2176   11.9397   -0.7435 H   0  0  0  0  0  0
   -6.2542   11.4026   -3.6626 H   0  0  0  0  0  0
   -5.5046   15.9938   -4.1512 H   0  0  0  0  0  0
   -6.1585   17.0545   -2.0241 H   0  0  0  0  0  0
   -3.0471    5.0412   -2.1184 H   0  0  0  0  0  0
   -2.9414    5.1195    2.1625 H   0  0  0  0  0  0
   -4.0978    7.3283    2.0768 H   0  0  0  0  0  0
   -3.8109    2.3901   -0.1229 H   0  0  0  0  0  0
   -2.5166    0.3185   -0.2557 H   0  0  0  0  0  0
   -0.3995   -0.6731   -0.7151 H   0  0  0  0  0  0
    1.8854    0.6188    0.5649 H   0  0  0  0  0  0
    3.8448    1.0750   -0.4458 H   0  0  0  0  0  0
    5.2219    1.0852   -2.5781 H   0  0  0  0  0  0
    3.8037    0.5598   -3.4651 H   0  0  0  0  0  0
    4.1044    2.8345   -3.4491 H   0  0  0  0  0  0
    3.9954   -1.5874   -1.9438 H   0  0  0  0  0  0
    5.9883   -0.7191   -1.6737 H   0  0  0  0  0  0
    3.7437   -1.1298    1.0656 H   0  0  0  0  0  0
    4.8017   -3.0517    0.2007 H   0  0  0  0  0  0
    1.4141   -1.8904    0.9556 H   0  0  0  0  0  0
    1.8219   -2.0765   -1.9843 H   0  0  0  0  0  0
    0.4115   -2.3514   -1.1893 H   0  0  0  0  0  0
    1.1329    2.5877   -0.1132 H   0  0  0  0  0  0
    0.3231    5.1809    0.9650 H   0  0  0  0  0  0
    1.6899   -3.3604   -0.9676 H   0  0  0  0  0  0
  1  2  1  0  0  0
  1 50  1  0  0  0
  1 51  1  0  0  0
  1 52  1  0  0  0
  2  3  1  0  0  0
  2 48  1  0  0  0
  2 53  1  0  0  0
  3  4  1  0  0  0
  3 54  1  0  0  0
  3 55  1  0  0  0
  4  5  1  0  0  0
  4 56  1  0  0  0
  4 57  1  0  0  0
  5  6  1  0  0  0
  5 58  1  0  0  0
  5 59  1  0  0  0
  6  7  1  0  0  0
  6 23  1  0  0  0
  6 60  1  0  0  0
  7  8  1  0  0  0
  7 12  1  0  0  0
  8  9  1  0  0  0
  8 61  1  0  0  0
  8 62  1  0  0  0
  9 10  1  0  0  0
  9 63  1  0  0  0
  9 64  1  0  0  0
 10 11  2  0  0  0
 10 14  1  0  0  0
 11 12  1  0  0  0
 11 65  1  0  0  0
 12 13  2  0  0  0
 14 15  2  0  0  0
 14 21  1  0  0  0
 15 16  1  0  0  0
 15 17  1  0  0  0
 17 18  2  0  0  0
 17 66  1  0  0  0
 18 19  1  0  0  0
 18 67  1  0  0  0
 19 20  1  0  0  0
 19 21  2  0  0  0
 21 22  1  0  0  0
 23 24  1  0  0  0
 23 28  2  0  0  0
 24 25  2  0  0  0
 24 68  1  0  0  0
 25 26  1  0  0  0
 25 29  1  0  0  0
 26 27  2  0  0  0
 26 69  1  0  0  0
 27 28  1  0  0  0
 27 70  1  0  0  0
 29 30  2  0  0  0
 29 46  1  0  0  0
 30 31  1  0  0  0
 30 71  1  0  0  0
 31 32  2  0  0  0
 31 72  1  0  0  0
 32 33  1  0  0  0
 32 45  1  0  0  0
 33 34  1  0  0  0
 33 73  1  0  0  0
 34 35  1  0  0  0
 34 43  1  0  0  0
 34 74  1  0  0  0
 35 36  1  0  0  0
 36 37  1  0  0  0
 36 39  1  0  0  0
 36 75  1  0  0  0
 37 38  1  0  0  0
 37 76  1  0  0  0
 37 77  1  0  0  0
 38 78  1  0  0  0
 39 40  1  0  0  0
 39 41  1  0  0  0
 39 79  1  0  0  0
 40 80  1  0  0  0
 41 42  1  0  0  0
 41 43  1  0  0  0
 41 81  1  0  0  0
 42 82  1  0  0  0
 43 44  1  0  0  0
 43 83  1  0  0  0
 44 84  1  0  0  0
 44 85  1  0  0  0
 44 88  1  0  0  0
 45 46  2  0  0  0
 45 86  1  0  0  0
 46 47  1  0  0  0
 47 48  1  0  0  0
 47 87  1  0  0  0
 48 49  2  0  0  0
M  CHG  1  44   1
M  END
> <chembl_id>
CHEMBL4109821

> <chembl_pref_name>
None

> <i_m_ct_stereo_status>
1

> <s_m_source_file>
sdf/actives_sanitized.sdf

> <i_m_source_file_index>
189

> <i_lp_mmshare_version>
49012

> <i_f3d_flags>
0

> <s_epik_input>
W05IMl1bQ0BIXTFbQ0BASF0oW09IXSlbQ0BIXShbT0hdKVtDQEBIXShbQ0gyXVtPSF0pT1tDQEhdMVtOSF1jKFtjSF1bY0hdMilbY0hdYyhjMmMoW2NIXWMzNClbY0hdW2NIXW40KVtOSF1DKD1PKVtDQEhdKFtDSDNdKVtDSDJdW0NIMl1bQ0gyXVtDQEBIXTNONVtDSDJdW0NIMl1DKD1bQ0hdQzU9TyljNmMoRilbY0hdW2NIXWMoQ2wpYzZG

> <s_epik_cmdline>
J2VwaWtfcHl0aG9uJywgJy1waHQnLCAnMC41JywgJy1waCcsICc3LjUnLCAnLW50JywgJy1tYScsICcyMDAnLCAnLWltYWUnLCAnPGluZmlsZS5tYWU+JywgJy1vbWFlJywgJzxvdXRmaWxlLm1hZT4n

> <r_epik_Ionization_Penalty>
  0.0863

> <r_epik_Ionization_Penalty_Charging>
  0.0862

> <r_epik_Ionization_Penalty_Neutral>
  0.0001

> <r_epik_State_Penalty>
  0.0768

> <r_epik_Charging_Adjusted_Penalty>
0.16298230358765

> <i_epik_Tot_Q>
1

> <i_epik_Tot_abs_Q>
1

> <s_epik_Chemistry_Notes>
This compound contains an acetal/aminal-like group ( X-CH(R)-Y where X, Y are N, S, or O) that may be acid/base labile, releasing an aldehyde.

> <s_lp_Force_Field>
OPLS3e

> <r_lp_Energy>
103.383241

> <b_lp_Chiralities_Consistent>
1

> <s_lp_Variant>
sdf/actives_sanitized.sdf:189-1

$$$$
sdf/actives_sanitized.sdf:190
                    3D
 Schrodinger Suite 2020-1.
 59 62  0  0  1  0            999 V2000
   -2.8989   -0.5537   -0.0366 C   0  0  0  0  0  0
   -4.2489   -0.8745    0.0481 C   0  0  0  0  0  0
   -4.7642   -1.5284    1.1623 C   0  0  0  0  0  0
   -2.0093   -0.8738    1.0000 C   0  0  0  0  0  0
   -2.4984   -1.5380    2.1443 C   0  0  0  0  0  0
   -3.8868   -1.8577    2.2046 C   0  0  0  0  0  0
   -4.2974   -2.6774    3.7012 S   0  0  0  0  0  0
   -2.6270   -2.6001    4.2463 C   0  0  0  0  0  0
   -1.8131   -1.9680    3.3177 C   0  0  0  0  0  0
   -2.2541   -3.1093    5.4762 C   0  0  0  0  0  0
   -2.8413   -4.2104    5.9277 N   0  0  0  0  0  0
   -1.3097   -2.4807    6.1642 N   0  3  0  0  0  0
   -0.6511   -0.6030    1.0141 O   0  0  0  0  0  0
   -0.0426    0.1218   -0.0612 C   0  0  2  0  0  0
    1.4807   -0.0250    0.0992 C   0  0  0  0  0  0
   -0.4747    1.5921   -0.0669 C   0  0  0  0  0  0
   -0.6722    2.2807    1.1353 C   0  0  0  0  0  0
   -1.0674    3.6155    1.1174 C   0  0  0  0  0  0
   -1.2641    4.2604   -0.1016 C   0  0  0  0  0  0
   -1.0684    3.5830   -1.3031 C   0  0  0  0  0  0
   -0.6727    2.2483   -1.2857 C   0  0  0  0  0  0
    2.1490    0.4808   -1.0526 O   0  0  0  0  0  0
    3.4916    0.5808   -1.0887 C   0  0  0  0  0  0
    3.8589    1.1119   -2.3205 N   0  0  0  0  0  0
    4.2419    0.2668   -0.1620 O   0  0  0  0  0  0
    5.1510    1.3952   -2.8001 C   0  0  0  0  0  0
    6.2781    0.6803   -2.3592 C   0  0  0  0  0  0
    7.5453    0.9752   -2.8581 C   0  0  0  0  0  0
    7.7032    1.9793   -3.8089 C   0  0  0  0  0  0
    6.5929    2.6862   -4.2647 C   0  0  0  0  0  0
    5.3134    2.4056   -3.7706 C   0  0  0  0  0  0
    4.1409    3.2105   -4.3265 C   0  0  0  0  0  0
    4.0152    4.5930   -3.6807 N   0  3  0  0  0  0
   -2.5563   -0.0482   -0.9264 H   0  0  0  0  0  0
   -4.9083   -0.6116   -0.7663 H   0  0  0  0  0  0
   -5.8151   -1.7738    1.2172 H   0  0  0  0  0  0
   -0.7537   -1.8168    3.4646 H   0  0  0  0  0  0
   -2.5808   -4.5885    6.8267 H   0  0  0  0  0  0
   -3.5503   -4.6639    5.3699 H   0  0  0  0  0  0
   -1.0261   -2.8313    7.0673 H   0  0  0  0  0  0
   -0.3253   -0.3594   -1.0001 H   0  0  0  0  0  0
    1.7401   -1.0773    0.2257 H   0  0  0  0  0  0
    1.8133    0.5000    0.9966 H   0  0  0  0  0  0
   -0.5193    1.7846    2.0827 H   0  0  0  0  0  0
   -1.2209    4.1487    2.0441 H   0  0  0  0  0  0
   -1.5719    5.2955   -0.1148 H   0  0  0  0  0  0
   -1.2240    4.0910   -2.2435 H   0  0  0  0  0  0
   -0.5205    1.7257   -2.2189 H   0  0  0  0  0  0
    3.0997    1.3950   -2.9221 H   0  0  0  0  0  0
    6.1906   -0.1187   -1.6386 H   0  0  0  0  0  0
    8.4047    0.4203   -2.5109 H   0  0  0  0  0  0
    8.6854    2.2054   -4.1978 H   0  0  0  0  0  0
    6.7317    3.4566   -5.0096 H   0  0  0  0  0  0
    4.2471    3.4109   -5.3939 H   0  0  0  0  0  0
    3.1648    2.7593   -4.1475 H   0  0  0  0  0  0
    3.2406    5.0973   -4.0880 H   0  0  0  0  0  0
    4.8605    5.1258   -3.8298 H   0  0  0  0  0  0
   -0.8879   -1.6453    5.7854 H   0  0  0  0  0  0
    3.8537    4.5000   -2.6877 H   0  0  0  0  0  0
  1  4  2  0  0  0
  1  2  1  0  0  0
  1 34  1  0  0  0
  2  3  2  0  0  0
  2 35  1  0  0  0
  3  6  1  0  0  0
  3 36  1  0  0  0
  4 13  1  0  0  0
  4  5  1  0  0  0
  5  9  1  0  0  0
  5  6  2  0  0  0
  6  7  1  0  0  0
  7  8  1  0  0  0
  8  9  2  0  0  0
  8 10  1  0  0  0
  9 37  1  0  0  0
 10 11  1  0  0  0
 10 12  2  0  0  0
 11 38  1  0  0  0
 11 39  1  0  0  0
 12 40  1  0  0  0
 12 58  1  0  0  0
 13 14  1  0  0  0
 14 16  1  0  0  0
 14 15  1  0  0  0
 14 41  1  0  0  0
 15 22  1  0  0  0
 15 42  1  0  0  0
 15 43  1  0  0  0
 16 17  2  0  0  0
 16 21  1  0  0  0
 17 18  1  0  0  0
 17 44  1  0  0  0
 18 19  2  0  0  0
 18 45  1  0  0  0
 19 20  1  0  0  0
 19 46  1  0  0  0
 20 21  2  0  0  0
 20 47  1  0  0  0
 21 48  1  0  0  0
 22 23  1  0  0  0
 23 24  1  0  0  0
 23 25  2  0  0  0
 24 26  1  0  0  0
 24 49  1  0  0  0
 26 27  2  0  0  0
 26 31  1  0  0  0
 27 28  1  0  0  0
 27 50  1  0  0  0
 28 29  2  0  0  0
 28 51  1  0  0  0
 29 30  1  0  0  0
 29 52  1  0  0  0
 30 31  2  0  0  0
 30 53  1  0  0  0
 31 32  1  0  0  0
 32 33  1  0  0  0
 32 54  1  0  0  0
 32 55  1  0  0  0
 33 56  1  0  0  0
 33 57  1  0  0  0
 33 59  1  0  0  0
M  CHG  2  12   1  33   1
M  END
> <chembl_id>
CHEMBL599394

> <chembl_pref_name>
None

> <s_m_source_file>
sdf/actives_sanitized.sdf

> <i_m_source_file_index>
190

> <i_lp_mmshare_version>
49012

> <i_m_ct_stereo_status>
1

> <i_f3d_flags>
0

> <s_epik_input>
W0hdXE49QyhbTkgyXSlcYyhbY0hdMSlzYyhjMTIpW2NIXVtjSF1bY0hdYzJPW0NAQEhdKGMzW2NIXVtjSF1bY0hdW2NIXVtjSF0zKVtDSDJdT0MoPU8pW05IXWM0W2NIXVtjSF1bY0hdW2NIXWM0W0NIMl1bTkgyXQ==

> <s_epik_cmdline>
J2VwaWtfcHl0aG9uJywgJy1waHQnLCAnMC41JywgJy1waCcsICc3LjUnLCAnLW50JywgJy1tYScsICcyMDAnLCAnLWltYWUnLCAnPGluZmlsZS5tYWU+JywgJy1vbWFlJywgJzxvdXRmaWxlLm1hZT4n

> <r_lp_tautomer_probability>
1

> <r_epik_Ionization_Penalty>
  0.0895

> <r_epik_Ionization_Penalty_Charging>
  0.0895

> <r_epik_Ionization_Penalty_Neutral>
  0.0000

> <r_epik_State_Penalty>
 -0.0000

> <r_epik_Charging_Adjusted_Penalty>
0.089480927388245

> <i_epik_Tot_Q>
2

> <i_epik_Tot_abs_Q>
2

> <s_epik_Chemistry_Notes>
This compound has an ester and may undergo hydrolysis at high or low pH. This compound has an imine and may undergo hydrolysis.

> <s_lp_Force_Field>
OPLS3e

> <r_lp_Energy>
47.532055

> <b_lp_Chiralities_Consistent>
1

> <s_lp_Variant>
sdf/actives_sanitized.sdf:190-1

$$$$
sdf/actives_sanitized.sdf:191
                    3D
 Schrodinger Suite 2020-1.
 69 73  0  0  1  0            999 V2000
   -3.1316    1.5754   -0.2541 C   0  0  0  0  0  0
   -2.0131    0.7211   -0.0561 O   0  0  0  0  0  0
   -0.7551    1.1839   -0.2021 C   0  0  0  0  0  0
   -0.4739    2.3428   -0.5152 O   0  0  0  0  0  0
    0.1274    0.1412    0.0644 N   0  0  0  0  0  0
    1.5329    0.1338    0.0605 C   0  0  0  0  0  0
    2.3340    1.2335   -0.2801 C   0  0  0  0  0  0
    3.7226    1.1306   -0.2348 C   0  0  0  0  0  0
    4.3429   -0.0629    0.1490 C   0  0  0  0  0  0
    3.5416   -1.1810    0.4624 C   0  0  0  0  0  0
    4.0531   -2.4167    0.8906 N   0  0  0  0  0  0
    4.7717   -3.3257    0.1929 C   0  0  0  0  0  0
    5.0524   -4.3983    0.7268 O   0  0  0  0  0  0
    5.2670   -3.0724   -1.2561 C   0  0  2  0  0  0
    4.5607   -4.0105   -2.2555 C   0  0  0  0  0  0
    6.8164   -3.2128   -1.3278 C   0  0  0  0  0  0
    7.4981   -2.5513   -2.5547 C   0  0  0  0  0  0
    8.8693   -1.8955   -2.2322 C   0  0  0  0  0  0
    8.8117   -0.4118   -1.7475 C   0  0  2  0  0  0
   10.1241    0.1540   -1.3550 N   0  0  0  0  0  0
   11.0618   -0.6732   -0.5382 C   0  0  0  0  0  0
   12.0387    0.1729    0.3227 C   0  0  0  0  0  0
   12.5982    1.3003   -0.5241 C   0  0  0  0  0  0
   11.7824    1.8740   -1.4300 C   0  0  0  0  0  0
   10.4334    1.4406   -1.7236 C   0  0  0  0  0  0
    9.6416    2.2143   -2.2646 O   0  0  0  0  0  0
   13.8837    1.9323   -0.1497 C   0  0  0  0  0  0
   15.0700    1.1842   -0.2047 C   0  0  0  0  0  0
   15.0529   -0.1064   -0.6145 F   0  0  0  0  0  0
   16.2890    1.7610    0.1512 C   0  0  0  0  0  0
   16.3402    3.0892    0.5667 C   0  0  0  0  0  0
   15.1710    3.8455    0.6295 C   0  0  0  0  0  0
   15.2512    5.4905    1.1526 Cl  0  0  0  0  0  0
   13.9462    3.2714    0.2745 C   0  0  0  0  0  0
   12.8163    4.0152    0.3569 F   0  0  0  0  0  0
    7.7573   -0.1828   -0.6723 C   0  0  0  0  0  0
    6.5079    0.0980   -0.9501 N   0  0  0  0  0  0
    5.8319   -0.0860    0.1734 C   0  0  0  0  0  0
    6.6942   -0.3445    1.2357 C   0  0  0  0  0  0
    6.4271   -0.6539    2.9043 Cl  0  0  0  0  0  0
    7.9386   -0.3975    0.6704 N   0  0  0  0  0  0
    2.1484   -1.0649    0.4297 C   0  0  0  0  0  0
   -4.0547    1.0229   -0.0796 H   0  0  0  0  0  0
   -3.1546    1.9613   -1.2744 H   0  0  0  0  0  0
   -3.1068    2.4205    0.4356 H   0  0  0  0  0  0
   -0.3004   -0.7389    0.3121 H   0  0  0  0  0  0
    1.9134    2.1800   -0.5777 H   0  0  0  0  0  0
    4.3195    1.9936   -0.4944 H   0  0  0  0  0  0
    3.7268   -2.7149    1.7982 H   0  0  0  0  0  0
    4.9993   -2.0609   -1.5503 H   0  0  0  0  0  0
    3.4771   -3.8894   -2.2170 H   0  0  0  0  0  0
    4.7808   -5.0599   -2.0534 H   0  0  0  0  0  0
    4.8718   -3.7999   -3.2792 H   0  0  0  0  0  0
    7.2535   -2.7979   -0.4200 H   0  0  0  0  0  0
    7.0966   -4.2671   -1.2882 H   0  0  0  0  0  0
    7.6375   -3.3171   -3.3189 H   0  0  0  0  0  0
    6.8438   -1.8099   -3.0154 H   0  0  0  0  0  0
    9.3903   -2.5269   -1.5125 H   0  0  0  0  0  0
    9.4855   -1.9248   -3.1321 H   0  0  0  0  0  0
    8.4660    0.1326   -2.6290 H   0  0  0  0  0  0
   10.5444   -1.4508    0.0236 H   0  0  0  0  0  0
   11.6757   -1.2105   -1.2626 H   0  0  0  0  0  0
   11.4769    0.6039    1.1526 H   0  0  0  0  0  0
   12.8221   -0.4525    0.7511 H   0  0  0  0  0  0
   12.1328    2.7445   -1.9670 H   0  0  0  0  0  0
   17.1970    1.1779    0.1032 H   0  0  0  0  0  0
   17.2880    3.5291    0.8409 H   0  0  0  0  0  0
    8.8016   -0.6444    1.1327 H   0  0  0  0  0  0
    1.5377   -1.9176    0.6953 H   0  0  0  0  0  0
  1  2  1  0  0  0
  1 43  1  0  0  0
  1 44  1  0  0  0
  1 45  1  0  0  0
  2  3  1  0  0  0
  3  4  2  0  0  0
  3  5  1  0  0  0
  5  6  1  0  0  0
  5 46  1  0  0  0
  6  7  2  0  0  0
  6 42  1  0  0  0
  7  8  1  0  0  0
  7 47  1  0  0  0
  8  9  2  0  0  0
  8 48  1  0  0  0
  9 10  1  0  0  0
  9 38  1  0  0  0
 10 11  1  0  0  0
 10 42  2  0  0  0
 11 12  1  0  0  0
 11 49  1  0  0  0
 12 13  2  0  0  0
 12 14  1  0  0  0
 14 15  1  0  0  0
 14 16  1  0  0  0
 14 50  1  0  0  0
 15 51  1  0  0  0
 15 52  1  0  0  0
 15 53  1  0  0  0
 16 17  1  0  0  0
 16 54  1  0  0  0
 16 55  1  0  0  0
 17 18  1  0  0  0
 17 56  1  0  0  0
 17 57  1  0  0  0
 18 19  1  0  0  0
 18 58  1  0  0  0
 18 59  1  0  0  0
 19 20  1  0  0  0
 19 36  1  0  0  0
 19 60  1  0  0  0
 20 21  1  0  0  0
 20 25  1  0  0  0
 21 22  1  0  0  0
 21 61  1  0  0  0
 21 62  1  0  0  0
 22 23  1  0  0  0
 22 63  1  0  0  0
 22 64  1  0  0  0
 23 24  2  0  0  0
 23 27  1  0  0  0
 24 25  1  0  0  0
 24 65  1  0  0  0
 25 26  2  0  0  0
 27 28  2  0  0  0
 27 34  1  0  0  0
 28 29  1  0  0  0
 28 30  1  0  0  0
 30 31  2  0  0  0
 30 66  1  0  0  0
 31 32  1  0  0  0
 31 67  1  0  0  0
 32 33  1  0  0  0
 32 34  2  0  0  0
 34 35  1  0  0  0
 36 37  2  0  0  0
 36 41  1  0  0  0
 37 38  1  0  0  0
 38 39  2  0  0  0
 39 40  1  0  0  0
 39 41  1  0  0  0
 41 68  1  0  0  0
 42 69  1  0  0  0
M  END
> <chembl_id>
CHEMBL4114881

> <chembl_pref_name>
None

> <i_m_ct_stereo_status>
1

> <s_m_source_file>
sdf/actives_sanitized.sdf

> <i_m_source_file_index>
191

> <i_lp_mmshare_version>
49012

> <i_f3d_flags>
0

> <s_epik_input>
W0NIM11PQyg9TylbTkhdYyhbY0hdW2NIXTEpW2NIXWMoYzEyKVtOSF1DKD1PKVtDQEhdKFtDSDNdKVtDSDJdW0NIMl1bQ0gyXVtDQEBIXShjM25jMmMoQ2wpW25IXTMpTjRbQ0gyXVtDSDJdQyg9W0NIXUM0PU8pYzVjKEYpW2NIXVtjSF1jKENsKWM1Rg==

> <s_epik_cmdline>
J2VwaWtfcHl0aG9uJywgJy1waHQnLCAnMC41JywgJy1waCcsICc3LjUnLCAnLW50JywgJy1tYScsICcyMDAnLCAnLWltYWUnLCAnPGluZmlsZS5tYWU+JywgJy1vbWFlJywgJzxvdXRmaWxlLm1hZT4n

> <r_lp_tautomer_probability>
1

> <r_epik_Ionization_Penalty>
  0.0056

> <r_epik_Ionization_Penalty_Charging>
  0.0041

> <r_epik_Ionization_Penalty_Neutral>
  0.0014

> <r_epik_State_Penalty>
 -0.0000

> <r_epik_Charging_Adjusted_Penalty>
0.00413386966969076

> <i_epik_Tot_Q>
0

> <i_epik_Tot_abs_Q>
0

> <s_epik_Chemistry_Notes>
This compound has an ester and may undergo hydrolysis at high or low pH.

> <s_lp_Force_Field>
OPLS3e

> <r_lp_Energy>
89.379529

> <b_lp_Chiralities_Consistent>
1

> <s_lp_Variant>
sdf/actives_sanitized.sdf:191-1

$$$$
sdf/actives_sanitized.sdf:192
                    3D
 Schrodinger Suite 2020-1.
 71 75  0  0  1  0            999 V2000
   -3.1439    1.5440   -0.3078 C   0  0  0  0  0  0
   -2.0151    0.7213   -0.0461 O   0  0  0  0  0  0
   -0.7627    1.1916   -0.2155 C   0  0  0  0  0  0
   -0.4956    2.3310   -0.6038 O   0  0  0  0  0  0
    0.1328    0.1802    0.1198 N   0  0  0  0  0  0
    1.5383    0.1876    0.1079 C   0  0  0  0  0  0
    2.3251    1.2841   -0.2727 C   0  0  0  0  0  0
    3.7150    1.1932   -0.2451 C   0  0  0  0  0  0
    4.3565    0.0190    0.1627 C   0  0  0  0  0  0
    3.5640   -1.0938    0.5207 C   0  0  0  0  0  0
    4.1015   -2.3152    0.9588 N   0  0  0  0  0  0
    4.7511   -3.2521    0.2304 C   0  0  0  0  0  0
    5.0979   -4.2994    0.7755 O   0  0  0  0  0  0
    5.0772   -3.0574   -1.2745 C   0  0  2  0  0  0
    4.2578   -4.0306   -2.1464 C   0  0  0  0  0  0
    6.6070   -3.1980   -1.5309 C   0  0  0  0  0  0
    7.1029   -2.6203   -2.8836 C   0  0  0  0  0  0
    8.5215   -1.9876   -2.8415 C   0  0  0  0  0  0
    8.5795   -0.4777   -2.4389 C   0  0  2  0  0  0
    9.9320    0.1414   -2.5461 N   0  0  0  0  0  0
   11.1078   -0.6979   -2.1757 C   0  0  0  0  0  0
   12.4476   -0.0418   -2.4415 C   0  0  0  0  0  0
   12.5947    1.2569   -2.7260 C   0  0  0  0  0  0
   11.3799    2.1602   -2.7997 C   0  0  0  0  0  0
    9.9826    1.5006   -2.7565 C   0  0  0  0  0  0
    8.9798    2.1979   -2.9293 O   0  0  0  0  0  0
   13.9398    1.8256   -2.9610 C   0  0  0  0  0  0
   14.4629    2.7994   -2.0960 C   0  0  0  0  0  0
   13.7540    3.2245   -1.0236 F   0  0  0  0  0  0
   15.7302    3.3369   -2.3203 C   0  0  0  0  0  0
   16.4904    2.9099   -3.4064 C   0  0  0  0  0  0
   15.9851    1.9423   -4.2735 C   0  0  0  0  0  0
   16.9405    1.4221   -5.6162 Cl  0  0  0  0  0  0
   14.7143    1.4015   -4.0537 C   0  0  0  0  0  0
   14.2303    0.4682   -4.9091 F   0  0  0  0  0  0
    7.8902   -0.2318   -1.0922 C   0  0  0  0  0  0
    6.5193    0.0298   -1.0646 C   0  0  0  0  0  0
    5.8395   -0.0261    0.1547 C   0  0  0  0  0  0
    6.5823   -0.2093    1.3276 C   0  0  0  0  0  0
    7.9667   -0.3661    1.2301 C   0  0  0  0  0  0
    8.6236   -0.3998    0.0423 N   0  0  0  0  0  0
    2.1694   -0.9932    0.5058 C   0  0  0  0  0  0
   -4.0605    0.9849   -0.1197 H   0  0  0  0  0  0
   -3.1555    1.8757   -1.3473 H   0  0  0  0  0  0
   -3.1444    2.4242    0.3371 H   0  0  0  0  0  0
   -0.2845   -0.6901    0.4157 H   0  0  0  0  0  0
    1.8928    2.2181   -0.5920 H   0  0  0  0  0  0
    4.3004    2.0520   -0.5417 H   0  0  0  0  0  0
    3.8718   -2.5664    1.9091 H   0  0  0  0  0  0
    4.7764   -2.0553   -1.5719 H   0  0  0  0  0  0
    3.1861   -3.9064   -1.9833 H   0  0  0  0  0  0
    4.5028   -5.0720   -1.9322 H   0  0  0  0  0  0
    4.4431   -3.8600   -3.2074 H   0  0  0  0  0  0
    7.1512   -2.7198   -0.7174 H   0  0  0  0  0  0
    6.9035   -4.2461   -1.4586 H   0  0  0  0  0  0
    7.0946   -3.4278   -3.6171 H   0  0  0  0  0  0
    6.3991   -1.8841   -3.2734 H   0  0  0  0  0  0
    9.1566   -2.5893   -2.1900 H   0  0  0  0  0  0
    8.9511   -2.0795   -3.8403 H   0  0  0  0  0  0
    7.9605    0.0149   -3.1919 H   0  0  0  0  0  0
   11.0497   -0.9666   -1.1208 H   0  0  0  0  0  0
   11.0747   -1.6443   -2.7137 H   0  0  0  0  0  0
   13.3328   -0.6589   -2.3799 H   0  0  0  0  0  0
   11.4138    2.8934   -1.9939 H   0  0  0  0  0  0
   11.4237    2.7217   -3.7340 H   0  0  0  0  0  0
   16.1255    4.0847   -1.6485 H   0  0  0  0  0  0
   17.4714    3.3305   -3.5730 H   0  0  0  0  0  0
    5.9688    0.1420   -1.9878 H   0  0  0  0  0  0
    6.0949   -0.2496    2.2910 H   0  0  0  0  0  0
    8.5674   -0.5110    2.1160 H   0  0  0  0  0  0
    1.5717   -1.8452    0.8010 H   0  0  0  0  0  0
  1  2  1  0  0  0
  1 43  1  0  0  0
  1 44  1  0  0  0
  1 45  1  0  0  0
  2  3  1  0  0  0
  3  4  2  0  0  0
  3  5  1  0  0  0
  5  6  1  0  0  0
  5 46  1  0  0  0
  6  7  2  0  0  0
  6 42  1  0  0  0
  7  8  1  0  0  0
  7 47  1  0  0  0
  8  9  2  0  0  0
  8 48  1  0  0  0
  9 10  1  0  0  0
  9 38  1  0  0  0
 10 11  1  0  0  0
 10 42  2  0  0  0
 11 12  1  0  0  0
 11 49  1  0  0  0
 12 13  2  0  0  0
 12 14  1  0  0  0
 14 15  1  0  0  0
 14 16  1  0  0  0
 14 50  1  0  0  0
 15 51  1  0  0  0
 15 52  1  0  0  0
 15 53  1  0  0  0
 16 17  1  0  0  0
 16 54  1  0  0  0
 16 55  1  0  0  0
 17 18  1  0  0  0
 17 56  1  0  0  0
 17 57  1  0  0  0
 18 19  1  0  0  0
 18 58  1  0  0  0
 18 59  1  0  0  0
 19 20  1  0  0  0
 19 36  1  0  0  0
 19 60  1  0  0  0
 20 21  1  0  0  0
 20 25  1  0  0  0
 21 22  1  0  0  0
 21 61  1  0  0  0
 21 62  1  0  0  0
 22 23  2  0  0  0
 22 63  1  0  0  0
 23 24  1  0  0  0
 23 27  1  0  0  0
 24 25  1  0  0  0
 24 64  1  0  0  0
 24 65  1  0  0  0
 25 26  2  0  0  0
 27 28  2  0  0  0
 27 34  1  0  0  0
 28 29  1  0  0  0
 28 30  1  0  0  0
 30 31  2  0  0  0
 30 66  1  0  0  0
 31 32  1  0  0  0
 31 67  1  0  0  0
 32 33  1  0  0  0
 32 34  2  0  0  0
 34 35  1  0  0  0
 36 37  1  0  0  0
 36 41  2  0  0  0
 37 38  2  0  0  0
 37 68  1  0  0  0
 38 39  1  0  0  0
 39 40  2  0  0  0
 39 69  1  0  0  0
 40 41  1  0  0  0
 40 70  1  0  0  0
 42 71  1  0  0  0
M  END
> <chembl_id>
CHEMBL4112089

> <chembl_pref_name>
None

> <i_m_ct_stereo_status>
1

> <s_m_source_file>
sdf/actives_sanitized.sdf

> <i_m_source_file_index>
192

> <i_lp_mmshare_version>
49012

> <i_f3d_flags>
0

> <s_epik_input>
W0NIM11PQyg9TylbTkhdYyhbY0hdW2NIXTEpW2NIXWMoYzEyKVtOSF1DKD1PKVtDQEhdKFtDSDNdKVtDSDJdW0NIMl1bQ0gyXVtDQEBIXShjM1tjSF1jMltjSF1bY0hdbjMpTjRbQ0gyXVtDSF09QyhbQ0gyXUM0PU8pYzVjKEYpW2NIXVtjSF1jKENsKWM1Rg==

> <s_epik_cmdline>
J2VwaWtfcHl0aG9uJywgJy1waHQnLCAnMC41JywgJy1waCcsICc3LjUnLCAnLW50JywgJy1tYScsICcyMDAnLCAnLWltYWUnLCAnPGluZmlsZS5tYWU+JywgJy1vbWFlJywgJzxvdXRmaWxlLm1hZT4n

> <r_lp_tautomer_probability>
1

> <r_epik_Ionization_Penalty>
  0.0001

> <r_epik_Ionization_Penalty_Charging>
  0.0000

> <r_epik_Ionization_Penalty_Neutral>
  0.0001

> <r_epik_State_Penalty>
 -0.0000

> <r_epik_Charging_Adjusted_Penalty>
0

> <i_epik_Tot_Q>
0

> <i_epik_Tot_abs_Q>
0

> <s_epik_Chemistry_Notes>
This compound has an ester and may undergo hydrolysis at high or low pH.

> <s_lp_Force_Field>
OPLS3e

> <r_lp_Energy>
85.46573

> <b_lp_Chiralities_Consistent>
1

> <s_lp_Variant>
sdf/actives_sanitized.sdf:192-1

$$$$
sdf/actives_sanitized.sdf:193
                    3D
 Schrodinger Suite 2020-1.
 65 69  0  0  1  0            999 V2000
   -5.2390    1.8075   -0.9471 C   0  0  0  0  0  0
   -4.1283    0.9789   -1.6241 C   0  0  2  0  0  0
   -2.7363    1.6664   -1.5028 C   0  0  0  0  0  0
   -2.0932    1.6041   -0.0916 C   0  0  0  0  0  0
   -0.5438    1.4958   -0.0890 C   0  0  0  0  0  0
    0.0420    0.0493   -0.1880 C   0  0  2  0  0  0
    1.5232    0.0053   -0.0962 N   0  0  0  0  0  0
    2.3361    1.0364   -0.8089 C   0  0  0  0  0  0
    3.7615    0.5432   -1.1789 C   0  0  0  0  0  0
    4.3683   -0.1623    0.0210 C   0  0  0  0  0  0
    3.5475   -0.9049    0.7902 C   0  0  0  0  0  0
    2.1145   -1.0077    0.6185 C   0  0  0  0  0  0
    1.5038   -1.9651    1.0972 O   0  0  0  0  0  0
    5.8393   -0.2862    0.1716 C   0  0  0  0  0  0
    6.4483   -0.0258    1.4114 C   0  0  0  0  0  0
    5.7068    0.3532    2.4794 F   0  0  0  0  0  0
    7.8298   -0.1394    1.5626 C   0  0  0  0  0  0
    8.6239   -0.5125    0.4819 C   0  0  0  0  0  0
    8.0385   -0.7719   -0.7556 C   0  0  0  0  0  0
    9.0386   -1.2376   -2.0858 Cl  0  0  0  0  0  0
    6.6533   -0.6588   -0.9131 C   0  0  0  0  0  0
    6.1048   -0.9315   -2.1214 F   0  0  0  0  0  0
   -0.5182   -0.7229   -1.3864 C   0  0  0  0  0  0
   -1.7220   -1.4164   -1.2486 C   0  0  0  0  0  0
   -2.3730   -1.8862   -2.3919 C   0  0  0  0  0  0
   -1.7261   -1.7654   -3.6278 C   0  0  0  0  0  0
   -0.4748   -1.1473   -3.6754 C   0  0  0  0  0  0
    0.1244   -0.6105   -2.5818 N   0  0  0  0  0  0
   -3.7564   -2.4108   -2.2759 C   0  0  0  0  0  0
   -3.9726   -3.5939   -1.5586 C   0  0  0  0  0  0
   -5.2573   -4.1339   -1.3888 C   0  0  0  0  0  0
   -6.3418   -3.4547   -1.9625 C   0  0  0  0  0  0
   -6.1499   -2.2721   -2.6722 C   0  0  0  0  0  0
   -4.8701   -1.7343   -2.8185 C   0  0  0  0  0  0
   -4.7662   -0.5469   -3.5610 N   0  0  0  0  0  0
   -4.4760    0.6953   -3.1101 C   0  0  0  0  0  0
   -4.4884    1.6382   -3.9009 O   0  0  0  0  0  0
   -5.4652   -5.4037   -0.6151 C   0  0  0  0  0  0
   -6.6365   -5.8277   -0.4852 O   0  0  0  0  0  0
   -4.4575   -5.9745   -0.1385 O   0  5  0  0  0  0
   -6.2059    1.3063   -1.0131 H   0  0  0  0  0  0
   -5.3475    2.7918   -1.4054 H   0  0  0  0  0  0
   -5.0277    1.9582    0.1119 H   0  0  0  0  0  0
   -4.0840    0.0333   -1.0882 H   0  0  0  0  0  0
   -2.0542    1.2198   -2.2252 H   0  0  0  0  0  0
   -2.8038    2.7080   -1.8219 H   0  0  0  0  0  0
   -2.3880    2.5029    0.4518 H   0  0  0  0  0  0
   -2.5065    0.7793    0.4898 H   0  0  0  0  0  0
   -0.1461    2.1382   -0.8747 H   0  0  0  0  0  0
   -0.1859    1.9289    0.8463 H   0  0  0  0  0  0
   -0.3472   -0.4605    0.6959 H   0  0  0  0  0  0
    1.7969    1.4800   -1.6457 H   0  0  0  0  0  0
    2.4644    1.8494   -0.0929 H   0  0  0  0  0  0
    3.6630   -0.1644   -2.0036 H   0  0  0  0  0  0
    4.3849    1.3702   -1.5208 H   0  0  0  0  0  0
    3.9760   -1.5052    1.5809 H   0  0  0  0  0  0
    8.2870    0.0648    2.5197 H   0  0  0  0  0  0
    9.6934   -0.6000    0.6072 H   0  0  0  0  0  0
   -2.2107   -1.4737   -0.2865 H   0  0  0  0  0  0
   -2.1924   -2.1250   -4.5333 H   0  0  0  0  0  0
    0.0493   -1.0382   -4.6132 H   0  0  0  0  0  0
   -3.1163   -4.0964   -1.1298 H   0  0  0  0  0  0
   -7.3488   -3.8348   -1.8633 H   0  0  0  0  0  0
   -7.0068   -1.7716   -3.1006 H   0  0  0  0  0  0
   -5.0570   -0.6189   -4.5250 H   0  0  0  0  0  0
  1  2  1  0  0  0
  1 41  1  0  0  0
  1 42  1  0  0  0
  1 43  1  0  0  0
  2  3  1  0  0  0
  2 36  1  0  0  0
  2 44  1  0  0  0
  3  4  1  0  0  0
  3 45  1  0  0  0
  3 46  1  0  0  0
  4  5  1  0  0  0
  4 47  1  0  0  0
  4 48  1  0  0  0
  5  6  1  0  0  0
  5 49  1  0  0  0
  5 50  1  0  0  0
  6  7  1  0  0  0
  6 23  1  0  0  0
  6 51  1  0  0  0
  7  8  1  0  0  0
  7 12  1  0  0  0
  8  9  1  0  0  0
  8 52  1  0  0  0
  8 53  1  0  0  0
  9 10  1  0  0  0
  9 54  1  0  0  0
  9 55  1  0  0  0
 10 11  2  0  0  0
 10 14  1  0  0  0
 11 12  1  0  0  0
 11 56  1  0  0  0
 12 13  2  0  0  0
 14 15  2  0  0  0
 14 21  1  0  0  0
 15 16  1  0  0  0
 15 17  1  0  0  0
 17 18  2  0  0  0
 17 57  1  0  0  0
 18 19  1  0  0  0
 18 58  1  0  0  0
 19 20  1  0  0  0
 19 21  2  0  0  0
 21 22  1  0  0  0
 23 24  1  0  0  0
 23 28  2  0  0  0
 24 25  2  0  0  0
 24 59  1  0  0  0
 25 26  1  0  0  0
 25 29  1  0  0  0
 26 27  2  0  0  0
 26 60  1  0  0  0
 27 28  1  0  0  0
 27 61  1  0  0  0
 29 30  2  0  0  0
 29 34  1  0  0  0
 30 31  1  0  0  0
 30 62  1  0  0  0
 31 32  2  0  0  0
 31 38  1  0  0  0
 32 33  1  0  0  0
 32 63  1  0  0  0
 33 34  2  0  0  0
 33 64  1  0  0  0
 34 35  1  0  0  0
 35 36  1  0  0  0
 35 65  1  0  0  0
 36 37  2  0  0  0
 38 39  2  0  0  0
 38 40  1  0  0  0
M  CHG  1  40  -1
M  END
> <chembl_id>
CHEMBL4114878

> <chembl_pref_name>
None

> <i_m_ct_stereo_status>
1

> <s_m_source_file>
sdf/actives_sanitized.sdf

> <i_m_source_file_index>
193

> <i_lp_mmshare_version>
49012

> <i_f3d_flags>
0

> <s_epik_input>
bjFbY0hdW2NIXWMoW2NIXWMxMiljM2MoW2NIXVtjSF1jKFtjSF0zKUMoPU8pW09IXSlbTkhdQyg9TylbQ0BIXShbQ0gzXSlbQ0gyXVtDSDJdW0NIMl1bQ0BASF0yTjRbQ0gyXVtDSDJdQyg9W0NIXUM0PU8pYzVjKEYpW2NIXVtjSF1jKENsKWM1Rg==

> <s_epik_cmdline>
J2VwaWtfcHl0aG9uJywgJy1waHQnLCAnMC41JywgJy1waCcsICc3LjUnLCAnLW50JywgJy1tYScsICcyMDAnLCAnLWltYWUnLCAnPGluZmlsZS5tYWU+JywgJy1vbWFlJywgJzxvdXRmaWxlLm1hZT4n

> <r_lp_tautomer_probability>
1

> <r_epik_Ionization_Penalty>
  0.0004

> <r_epik_Ionization_Penalty_Charging>
  0.0003

> <r_epik_Ionization_Penalty_Neutral>
  0.0001

> <r_epik_State_Penalty>
 -0.0000

> <r_epik_Charging_Adjusted_Penalty>
0.000276817367347314

> <i_epik_Tot_Q>
-1

> <i_epik_Tot_abs_Q>
1

> <s_lp_Force_Field>
OPLS3e

> <r_lp_Energy>
96.988949

> <b_lp_Chiralities_Consistent>
1

> <s_lp_Variant>
sdf/actives_sanitized.sdf:193-1

$$$$
sdf/actives_sanitized.sdf:194
                    3D
 Schrodinger Suite 2020-1.
 73 77  0  0  1  0            999 V2000
  -10.6317    2.3498   -4.3982 C   0  0  0  0  0  0
   -9.6507    1.3300   -4.5279 O   0  0  0  0  0  0
   -8.4140    1.4916   -4.0159 C   0  0  0  0  0  0
   -8.0365    2.4971   -3.4095 O   0  0  0  0  0  0
   -7.6773    0.3404   -4.2772 N   0  0  0  0  0  0
   -6.3350    0.0642   -3.9708 C   0  0  0  0  0  0
   -5.9332   -1.2695   -4.0554 C   0  0  0  0  0  0
   -4.6191   -1.6320   -3.7663 C   0  0  0  0  0  0
   -3.6736   -0.6746   -3.3821 C   0  0  0  0  0  0
   -4.0757    0.6804   -3.3128 C   0  0  0  0  0  0
   -3.1501    1.7138   -3.0826 N   0  0  0  0  0  0
   -2.9680    2.4323   -1.9502 C   0  0  0  0  0  0
   -2.1652    3.3645   -1.9559 O   0  0  0  0  0  0
   -3.7522    2.1263   -0.6447 C   0  0  2  0  0  0
   -4.9644    3.0791   -0.5479 C   0  0  0  0  0  0
   -2.8855    2.2264    0.6593 C   0  0  0  0  0  0
   -1.9134    1.0605    0.9939 C   0  0  0  0  0  0
   -0.5604    1.0493    0.2318 C   0  0  0  0  0  0
    0.0442   -0.3676   -0.0592 C   0  0  2  0  0  0
    1.5244   -0.3231    0.0008 N   0  0  0  0  0  0
    2.2352    0.6337   -0.8974 C   0  0  0  0  0  0
    3.6930    0.1964   -1.1985 C   0  0  0  0  0  0
    4.3608   -0.1995    0.1049 C   0  0  0  0  0  0
    3.6180   -0.8241    1.0396 C   0  0  0  0  0  0
    2.1939   -1.0655    0.9423 C   0  0  0  0  0  0
    1.6635   -1.9151    1.6596 O   0  0  0  0  0  0
    5.8403   -0.1777    0.2103 C   0  0  0  0  0  0
    6.5528   -1.3856    0.1104 C   0  0  0  0  0  0
    5.8888   -2.5557   -0.0558 F   0  0  0  0  0  0
    7.9485   -1.3970    0.1739 C   0  0  0  0  0  0
    8.8213   -2.8839    0.0578 Cl  0  0  0  0  0  0
    8.6482   -0.2032    0.3278 C   0  0  0  0  0  0
    7.9590    1.0030    0.4155 C   0  0  0  0  0  0
    6.5619    1.0290    0.3545 C   0  0  0  0  0  0
    5.8996    2.3283    0.4602 C   0  0  0  0  0  0
    5.3742    3.3561    0.5434 N   0  0  0  0  0  0
   -0.4858   -0.9985   -1.3704 C   0  0  0  0  0  0
    0.3025   -1.7956   -2.2154 C   0  0  0  0  0  0
   -0.2038   -2.2559   -3.4346 C   0  0  0  0  0  0
   -1.4966   -1.9100   -3.8370 C   0  0  0  0  0  0
   -2.2999   -1.1174   -3.0113 C   0  0  0  0  0  0
   -1.7889   -0.7242   -1.7802 C   0  0  0  0  0  0
   -5.3918    1.0409   -3.6211 C   0  0  0  0  0  0
  -11.5547    2.0396   -4.8882 H   0  0  0  0  0  0
  -10.2968    3.2783   -4.8630 H   0  0  0  0  0  0
  -10.8540    2.5478   -3.3485 H   0  0  0  0  0  0
   -8.1764   -0.4070   -4.7368 H   0  0  0  0  0  0
   -6.6393   -2.0378   -4.3369 H   0  0  0  0  0  0
   -4.3404   -2.6746   -3.8228 H   0  0  0  0  0  0
   -2.5772    1.9618   -3.8760 H   0  0  0  0  0  0
   -4.1632    1.1179   -0.6930 H   0  0  0  0  0  0
   -5.6112    3.0085   -1.4230 H   0  0  0  0  0  0
   -4.6530    4.1212   -0.4567 H   0  0  0  0  0  0
   -5.5832    2.8439    0.3186 H   0  0  0  0  0  0
   -2.3479    3.1756    0.6938 H   0  0  0  0  0  0
   -3.5765    2.2784    1.5024 H   0  0  0  0  0  0
   -1.6775    1.1164    2.0578 H   0  0  0  0  0  0
   -2.4405    0.1113    0.9058 H   0  0  0  0  0  0
   -0.6356    1.5965   -0.7058 H   0  0  0  0  0  0
    0.1396    1.6402    0.8257 H   0  0  0  0  0  0
   -0.3298   -1.0311    0.7220 H   0  0  0  0  0  0
    1.6446    0.8993   -1.7749 H   0  0  0  0  0  0
    2.3248    1.5570   -0.3229 H   0  0  0  0  0  0
    3.6653   -0.6688   -1.8624 H   0  0  0  0  0  0
    4.2398    0.9866   -1.7139 H   0  0  0  0  0  0
    4.1111   -1.2054    1.9232 H   0  0  0  0  0  0
    9.7274   -0.2087    0.3769 H   0  0  0  0  0  0
    8.5257    1.9168    0.5319 H   0  0  0  0  0  0
    1.3151   -2.0550   -1.9438 H   0  0  0  0  0  0
    0.4144   -2.8645   -4.0778 H   0  0  0  0  0  0
   -1.8665   -2.2482   -4.7940 H   0  0  0  0  0  0
   -2.4411   -0.1588   -1.1507 H   0  0  0  0  0  0
   -5.6559    2.0870   -3.6075 H   0  0  0  0  0  0
  1  2  1  0  0  0
  1 44  1  0  0  0
  1 45  1  0  0  0
  1 46  1  0  0  0
  2  3  1  0  0  0
  3  4  2  0  0  0
  3  5  1  0  0  0
  5  6  1  0  0  0
  5 47  1  0  0  0
  6  7  2  0  0  0
  6 43  1  0  0  0
  7  8  1  0  0  0
  7 48  1  0  0  0
  8  9  2  0  0  0
  8 49  1  0  0  0
  9 10  1  0  0  0
  9 41  1  0  0  0
 10 11  1  0  0  0
 10 43  2  0  0  0
 11 12  1  0  0  0
 11 50  1  0  0  0
 12 13  2  0  0  0
 12 14  1  0  0  0
 14 15  1  0  0  0
 14 16  1  0  0  0
 14 51  1  0  0  0
 15 52  1  0  0  0
 15 53  1  0  0  0
 15 54  1  0  0  0
 16 17  1  0  0  0
 16 55  1  0  0  0
 16 56  1  0  0  0
 17 18  1  0  0  0
 17 57  1  0  0  0
 17 58  1  0  0  0
 18 19  1  0  0  0
 18 59  1  0  0  0
 18 60  1  0  0  0
 19 20  1  0  0  0
 19 37  1  0  0  0
 19 61  1  0  0  0
 20 21  1  0  0  0
 20 25  1  0  0  0
 21 22  1  0  0  0
 21 62  1  0  0  0
 21 63  1  0  0  0
 22 23  1  0  0  0
 22 64  1  0  0  0
 22 65  1  0  0  0
 23 24  2  0  0  0
 23 27  1  0  0  0
 24 25  1  0  0  0
 24 66  1  0  0  0
 25 26  2  0  0  0
 27 28  2  0  0  0
 27 34  1  0  0  0
 28 29  1  0  0  0
 28 30  1  0  0  0
 30 31  1  0  0  0
 30 32  2  0  0  0
 32 33  1  0  0  0
 32 67  1  0  0  0
 33 34  2  0  0  0
 33 68  1  0  0  0
 34 35  1  0  0  0
 35 36  3  0  0  0
 37 38  1  0  0  0
 37 42  2  0  0  0
 38 39  2  0  0  0
 38 69  1  0  0  0
 39 40  1  0  0  0
 39 70  1  0  0  0
 40 41  2  0  0  0
 40 71  1  0  0  0
 41 42  1  0  0  0
 42 72  1  0  0  0
 43 73  1  0  0  0
M  END
> <chembl_id>
CHEMBL4112342

> <chembl_pref_name>
None

> <i_m_ct_stereo_status>
1

> <s_m_source_file>
sdf/actives_sanitized.sdf

> <i_m_source_file_index>
194

> <i_lp_mmshare_version>
49012

> <i_f3d_flags>
0

> <s_epik_input>
W0NIM11PQyg9TylbTkhdYyhbY0hdW2NIXTEpW2NIXWMoYzEyKVtOSF1DKD1PKVtDQEhdKFtDSDNdKVtDSDJdW0NIMl1bQ0gyXVtDQEBIXShjM1tjSF1bY0hdW2NIXWMyW2NIXTMpTjRbQ0gyXVtDSDJdQyg9W0NIXUM0PU8pYzVjKEYpYyhDbClbY0hdW2NIXWM1QyNO

> <s_epik_cmdline>
J2VwaWtfcHl0aG9uJywgJy1waHQnLCAnMC41JywgJy1waCcsICc3LjUnLCAnLW50JywgJy1tYScsICcyMDAnLCAnLWltYWUnLCAnPGluZmlsZS5tYWU+JywgJy1vbWFlJywgJzxvdXRmaWxlLm1hZT4n

> <r_lp_tautomer_probability>
1

> <r_epik_Ionization_Penalty>
  0.0000

> <r_epik_Ionization_Penalty_Charging>
  0.0000

> <r_epik_Ionization_Penalty_Neutral>
  0.0000

> <r_epik_State_Penalty>
 -0.0000

> <r_epik_Charging_Adjusted_Penalty>
0

> <i_epik_Tot_Q>
0

> <i_epik_Tot_abs_Q>
0

> <s_epik_Chemistry_Notes>
This compound has an ester and may undergo hydrolysis at high or low pH.

> <s_lp_Force_Field>
OPLS3e

> <r_lp_Energy>
98.255561

> <b_lp_Chiralities_Consistent>
1

> <s_lp_Variant>
sdf/actives_sanitized.sdf:194-1

$$$$
sdf/actives_sanitized.sdf:195
                    3D
 Schrodinger Suite 2020-1.
 67 71  0  0  1  0            999 V2000
   -5.2655    1.6920   -0.7941 C   0  0  0  0  0  0
   -4.1401    0.9454   -1.5388 C   0  0  2  0  0  0
   -2.7669    1.6655   -1.3895 C   0  0  0  0  0  0
   -2.1045    1.5364    0.0081 C   0  0  0  0  0  0
   -0.5532    1.4531   -0.0121 C   0  0  0  0  0  0
    0.0474    0.0208   -0.1873 C   0  0  2  0  0  0
    1.5282   -0.0203   -0.0879 N   0  0  0  0  0  0
    2.3380    1.0697   -0.7115 C   0  0  0  0  0  0
    3.7803    0.6341   -1.0886 C   0  0  0  0  0  0
    4.3651   -0.1769    0.0481 C   0  0  0  0  0  0
    3.5495   -0.9888    0.7447 C   0  0  0  0  0  0
    2.1191   -1.0829    0.5521 C   0  0  0  0  0  0
    1.5088   -2.0769    0.9502 O   0  0  0  0  0  0
    5.8268   -0.2992    0.1899 C   0  0  0  0  0  0
    6.5315    0.5213    1.0854 C   0  0  0  0  0  0
    5.6339    1.8238    2.1541 Br  0  0  0  0  0  0
    7.9157    0.3964    1.2094 C   0  0  0  0  0  0
    8.6080   -0.5406    0.4455 C   0  0  0  0  0  0
    7.9186   -1.3582   -0.4487 C   0  0  0  0  0  0
    8.7916   -2.5143   -1.3905 Cl  0  0  0  0  0  0
    6.5317   -1.2385   -0.5780 C   0  0  0  0  0  0
    5.8693   -2.0361   -1.4510 F   0  0  0  0  0  0
   -0.5004   -0.6851   -1.4307 C   0  0  0  0  0  0
   -1.6854   -1.4167   -1.3330 C   0  0  0  0  0  0
   -2.3350   -1.8221   -2.5016 C   0  0  0  0  0  0
   -1.7025   -1.5977   -3.7307 C   0  0  0  0  0  0
   -0.4674   -0.9454   -3.7436 C   0  0  0  0  0  0
    0.1286   -0.4720   -2.6194 N   0  0  0  0  0  0
   -3.7058   -2.3846   -2.4128 C   0  0  0  0  0  0
   -3.8937   -3.6144   -1.7749 C   0  0  0  0  0  0
   -5.1638   -4.1720   -1.6449 C   0  0  0  0  0  0
   -6.2943   -3.5109   -2.1500 C   0  0  0  0  0  0
   -6.1096   -2.2725   -2.7817 C   0  0  0  0  0  0
   -4.8393   -1.7002   -2.9015 C   0  0  0  0  0  0
   -4.7652   -0.4649   -3.5657 N   0  0  0  0  0  0
   -4.5000    0.7516   -3.0362 C   0  0  0  0  0  0
   -4.5439    1.7438   -3.7626 O   0  0  0  0  0  0
   -7.6872   -4.0943   -2.0232 C   0  0  0  0  0  0
   -8.6821   -3.4697   -2.3897 O   0  0  0  0  0  0
   -7.7988   -5.3186   -1.4953 N   0  0  0  0  0  0
   -6.2155    1.1613   -0.8738 H   0  0  0  0  0  0
   -5.4177    2.6969   -1.1910 H   0  0  0  0  0  0
   -5.0388    1.7883    0.2682 H   0  0  0  0  0  0
   -4.0599   -0.0316   -1.0678 H   0  0  0  0  0  0
   -2.0807    1.2851   -2.1453 H   0  0  0  0  0  0
   -2.8698    2.7226   -1.6413 H   0  0  0  0  0  0
   -2.4067    2.3988    0.6040 H   0  0  0  0  0  0
   -2.4982    0.6744    0.5478 H   0  0  0  0  0  0
   -0.1724    2.1370   -0.7710 H   0  0  0  0  0  0
   -0.1903    1.8457    0.9391 H   0  0  0  0  0  0
   -0.3421   -0.5389    0.6657 H   0  0  0  0  0  0
    1.8067    1.5677   -1.5223 H   0  0  0  0  0  0
    2.4400    1.8286    0.0656 H   0  0  0  0  0  0
    3.7269    0.0057   -1.9789 H   0  0  0  0  0  0
    4.4010    1.4970   -1.3322 H   0  0  0  0  0  0
    3.9814   -1.6484    1.4846 H   0  0  0  0  0  0
    8.4560    1.0274    1.8998 H   0  0  0  0  0  0
    9.6795   -0.6298    0.5487 H   0  0  0  0  0  0
   -2.1632   -1.5512   -0.3730 H   0  0  0  0  0  0
   -2.1685   -1.9018   -4.6567 H   0  0  0  0  0  0
    0.0438   -0.7543   -4.6756 H   0  0  0  0  0  0
   -3.0440   -4.1490   -1.3748 H   0  0  0  0  0  0
   -5.2484   -5.1254   -1.1440 H   0  0  0  0  0  0
   -6.9616   -1.7379   -3.1801 H   0  0  0  0  0  0
   -5.0560   -0.4807   -4.5324 H   0  0  0  0  0  0
   -6.9773   -5.8257   -1.2009 H   0  0  0  0  0  0
   -8.7091   -5.7427   -1.3924 H   0  0  0  0  0  0
  1  2  1  0  0  0
  1 41  1  0  0  0
  1 42  1  0  0  0
  1 43  1  0  0  0
  2  3  1  0  0  0
  2 36  1  0  0  0
  2 44  1  0  0  0
  3  4  1  0  0  0
  3 45  1  0  0  0
  3 46  1  0  0  0
  4  5  1  0  0  0
  4 47  1  0  0  0
  4 48  1  0  0  0
  5  6  1  0  0  0
  5 49  1  0  0  0
  5 50  1  0  0  0
  6  7  1  0  0  0
  6 23  1  0  0  0
  6 51  1  0  0  0
  7  8  1  0  0  0
  7 12  1  0  0  0
  8  9  1  0  0  0
  8 52  1  0  0  0
  8 53  1  0  0  0
  9 10  1  0  0  0
  9 54  1  0  0  0
  9 55  1  0  0  0
 10 11  2  0  0  0
 10 14  1  0  0  0
 11 12  1  0  0  0
 11 56  1  0  0  0
 12 13  2  0  0  0
 14 15  2  0  0  0
 14 21  1  0  0  0
 15 16  1  0  0  0
 15 17  1  0  0  0
 17 18  2  0  0  0
 17 57  1  0  0  0
 18 19  1  0  0  0
 18 58  1  0  0  0
 19 20  1  0  0  0
 19 21  2  0  0  0
 21 22  1  0  0  0
 23 24  1  0  0  0
 23 28  2  0  0  0
 24 25  2  0  0  0
 24 59  1  0  0  0
 25 26  1  0  0  0
 25 29  1  0  0  0
 26 27  2  0  0  0
 26 60  1  0  0  0
 27 28  1  0  0  0
 27 61  1  0  0  0
 29 30  2  0  0  0
 29 34  1  0  0  0
 30 31  1  0  0  0
 30 62  1  0  0  0
 31 32  2  0  0  0
 31 63  1  0  0  0
 32 33  1  0  0  0
 32 38  1  0  0  0
 33 34  2  0  0  0
 33 64  1  0  0  0
 34 35  1  0  0  0
 35 36  1  0  0  0
 35 65  1  0  0  0
 36 37  2  0  0  0
 38 39  2  0  0  0
 38 40  1  0  0  0
 40 66  1  0  0  0
 40 67  1  0  0  0
M  END
> <chembl_id>
CHEMBL3957332

> <chembl_pref_name>
None

> <i_m_ct_stereo_status>
1

> <s_m_source_file>
sdf/actives_sanitized.sdf

> <i_m_source_file_index>
195

> <i_lp_mmshare_version>
49012

> <i_f3d_flags>
0

> <s_epik_input>
bjFbY0hdW2NIXWMoW2NIXWMxMiljM2MoW2NIXWMoW2NIXVtjSF0zKUMoPU8pW05IMl0pW05IXUMoPU8pW0NASF0oW0NIM10pW0NIMl1bQ0gyXVtDSDJdW0NAQEhdMk40W0NIMl1bQ0gyXUMoPVtDSF1DND1PKWM1YyhCcilbY0hdW2NIXWMoQ2wpYzVG

> <s_epik_cmdline>
J2VwaWtfcHl0aG9uJywgJy1waHQnLCAnMC41JywgJy1waCcsICc3LjUnLCAnLW50JywgJy1tYScsICcyMDAnLCAnLWltYWUnLCAnPGluZmlsZS5tYWU+JywgJy1vbWFlJywgJzxvdXRmaWxlLm1hZT4n

> <r_lp_tautomer_probability>
1

> <r_epik_Ionization_Penalty>
  0.0001

> <r_epik_Ionization_Penalty_Charging>
  0.0000

> <r_epik_Ionization_Penalty_Neutral>
  0.0001

> <r_epik_State_Penalty>
 -0.0000

> <r_epik_Charging_Adjusted_Penalty>
0

> <i_epik_Tot_Q>
0

> <i_epik_Tot_abs_Q>
0

> <s_lp_Force_Field>
OPLS3e

> <r_lp_Energy>
88.625544

> <b_lp_Chiralities_Consistent>
1

> <s_lp_Variant>
sdf/actives_sanitized.sdf:195-1

$$$$
sdf/actives_sanitized.sdf:196
                    3D
 Schrodinger Suite 2020-1.
 74 78  0  0  1  0            999 V2000
  -10.9847   -4.6149   -2.5086 C   0  0  0  0  0  0
   -9.6167   -4.6975   -2.1325 O   0  0  0  0  0  0
   -8.7268   -3.7735   -2.5485 C   0  0  0  0  0  0
   -9.0107   -2.8056   -3.2573 O   0  0  0  0  0  0
   -7.4757   -4.1153   -2.0435 N   0  0  0  0  0  0
   -6.2358   -3.4730   -2.2041 C   0  0  0  0  0  0
   -5.1424   -4.0775   -1.5825 C   0  0  0  0  0  0
   -3.8694   -3.5232   -1.6929 C   0  0  0  0  0  0
   -3.6532   -2.3533   -2.4285 C   0  0  0  0  0  0
   -4.7622   -1.7224   -3.0347 C   0  0  0  0  0  0
   -4.6565   -0.5541   -3.8071 N   0  0  0  0  0  0
   -4.4133    0.7081   -3.3854 C   0  0  0  0  0  0
   -4.4280    1.6256   -4.2052 O   0  0  0  0  0  0
   -4.1142    1.0472   -1.9004 C   0  0  2  0  0  0
   -5.2660    1.8632   -1.2789 C   0  0  0  0  0  0
   -2.7461    1.7803   -1.7695 C   0  0  0  0  0  0
   -2.1398    1.8020   -0.3407 C   0  0  0  0  0  0
   -0.5890    1.7112   -0.2940 C   0  0  0  0  0  0
   -0.0015    0.2636   -0.2689 C   0  0  2  0  0  0
    1.4700    0.2021   -0.0608 N   0  0  0  0  0  0
    2.3690    1.1746   -0.7525 C   0  0  0  0  0  0
    3.7474    1.3114   -0.0536 C   0  0  0  0  0  0
    4.2983   -0.0745    0.2252 C   0  0  0  0  0  0
    3.4274   -1.0530    0.5395 C   0  0  0  0  0  0
    1.9863   -0.9188    0.5482 C   0  0  0  0  0  0
    1.3014   -1.7676    1.1228 O   0  0  0  0  0  0
    5.7484   -0.2456    0.4674 C   0  0  0  0  0  0
    6.5896   -0.1088   -0.6443 C   0  0  0  0  0  0
    7.9682   -0.2661   -0.5270 C   0  0  0  0  0  0
    8.9797   -0.1027   -1.9161 Cl  0  0  0  0  0  0
    8.5278   -0.5551    0.7130 C   0  0  0  0  0  0
    7.7091   -0.6761    1.8326 C   0  0  0  0  0  0
    6.3167   -0.5272    1.7346 C   0  0  0  0  0  0
    5.4826   -0.5782    3.0265 C   0  0  0  0  0  0
    6.2309   -0.3767    4.1135 F   0  0  0  0  0  0
    4.5339    0.3590    3.0376 F   0  0  0  0  0  0
    4.9057   -1.7744    3.1378 F   0  0  0  0  0  0
   -0.4921   -0.5646   -1.4602 C   0  0  0  0  0  0
   -1.6863   -1.2789   -1.3495 C   0  0  0  0  0  0
   -2.2791   -1.7981   -2.5032 C   0  0  0  0  0  0
   -1.5840   -1.6997   -3.7149 C   0  0  0  0  0  0
   -0.3446   -1.0557   -3.7303 C   0  0  0  0  0  0
    0.1974   -0.4728   -2.6305 N   0  0  0  0  0  0
   -6.0362   -2.2915   -2.9342 C   0  0  0  0  0  0
  -11.5359   -5.4521   -2.0805 H   0  0  0  0  0  0
  -11.0970   -4.6546   -3.5932 H   0  0  0  0  0  0
  -11.4367   -3.6900   -2.1467 H   0  0  0  0  0  0
   -7.4482   -4.9526   -1.4803 H   0  0  0  0  0  0
   -5.2695   -4.9864   -1.0116 H   0  0  0  0  0  0
   -3.0400   -4.0148   -1.2045 H   0  0  0  0  0  0
   -4.9136   -0.6595   -4.7777 H   0  0  0  0  0  0
   -4.0562    0.1214   -1.3328 H   0  0  0  0  0  0
   -6.2147    1.3284   -1.3473 H   0  0  0  0  0  0
   -5.3959    2.8256   -1.7762 H   0  0  0  0  0  0
   -5.0837    2.0601   -0.2220 H   0  0  0  0  0  0
   -2.0309    1.3225   -2.4522 H   0  0  0  0  0  0
   -2.8351    2.8047   -2.1359 H   0  0  0  0  0  0
   -2.4579    2.7252    0.1458 H   0  0  0  0  0  0
   -2.5619    1.0052    0.2729 H   0  0  0  0  0  0
   -0.1840    2.2867   -1.1263 H   0  0  0  0  0  0
   -0.2529    2.2212    0.6101 H   0  0  0  0  0  0
   -0.4533   -0.1873    0.6173 H   0  0  0  0  0  0
    2.5994    0.7097   -1.7126 H   0  0  0  0  0  0
    1.8968    2.1209   -1.0063 H   0  0  0  0  0  0
    4.4361    1.9035   -0.6571 H   0  0  0  0  0  0
    3.6096    1.8420    0.8895 H   0  0  0  0  0  0
    3.8182   -2.0153    0.8392 H   0  0  0  0  0  0
    6.1687    0.1118   -1.6153 H   0  0  0  0  0  0
    9.5967   -0.6766    0.8125 H   0  0  0  0  0  0
    8.1743   -0.8838    2.7852 H   0  0  0  0  0  0
   -2.2134   -1.3147   -0.4067 H   0  0  0  0  0  0
   -2.0047   -2.0955   -4.6279 H   0  0  0  0  0  0
    0.2156   -0.9632   -4.6489 H   0  0  0  0  0  0
   -6.8563   -1.7941   -3.4277 H   0  0  0  0  0  0
  1  2  1  0  0  0
  1 45  1  0  0  0
  1 46  1  0  0  0
  1 47  1  0  0  0
  2  3  1  0  0  0
  3  4  2  0  0  0
  3  5  1  0  0  0
  5  6  1  0  0  0
  5 48  1  0  0  0
  6  7  2  0  0  0
  6 44  1  0  0  0
  7  8  1  0  0  0
  7 49  1  0  0  0
  8  9  2  0  0  0
  8 50  1  0  0  0
  9 10  1  0  0  0
  9 40  1  0  0  0
 10 11  1  0  0  0
 10 44  2  0  0  0
 11 12  1  0  0  0
 11 51  1  0  0  0
 12 13  2  0  0  0
 12 14  1  0  0  0
 14 15  1  0  0  0
 14 16  1  0  0  0
 14 52  1  0  0  0
 15 53  1  0  0  0
 15 54  1  0  0  0
 15 55  1  0  0  0
 16 17  1  0  0  0
 16 56  1  0  0  0
 16 57  1  0  0  0
 17 18  1  0  0  0
 17 58  1  0  0  0
 17 59  1  0  0  0
 18 19  1  0  0  0
 18 60  1  0  0  0
 18 61  1  0  0  0
 19 20  1  0  0  0
 19 38  1  0  0  0
 19 62  1  0  0  0
 20 21  1  0  0  0
 20 25  1  0  0  0
 21 22  1  0  0  0
 21 63  1  0  0  0
 21 64  1  0  0  0
 22 23  1  0  0  0
 22 65  1  0  0  0
 22 66  1  0  0  0
 23 24  2  0  0  0
 23 27  1  0  0  0
 24 25  1  0  0  0
 24 67  1  0  0  0
 25 26  2  0  0  0
 27 28  2  0  0  0
 27 33  1  0  0  0
 28 29  1  0  0  0
 28 68  1  0  0  0
 29 30  1  0  0  0
 29 31  2  0  0  0
 31 32  1  0  0  0
 31 69  1  0  0  0
 32 33  2  0  0  0
 32 70  1  0  0  0
 33 34  1  0  0  0
 34 35  1  0  0  0
 34 36  1  0  0  0
 34 37  1  0  0  0
 38 39  1  0  0  0
 38 43  2  0  0  0
 39 40  2  0  0  0
 39 71  1  0  0  0
 40 41  1  0  0  0
 41 42  2  0  0  0
 41 72  1  0  0  0
 42 43  1  0  0  0
 42 73  1  0  0  0
 44 74  1  0  0  0
M  END
> <chembl_id>
CHEMBL4106708

> <chembl_pref_name>
None

> <i_m_ct_stereo_status>
1

> <s_m_source_file>
sdf/actives_sanitized.sdf

> <i_m_source_file_index>
196

> <i_lp_mmshare_version>
49012

> <i_f3d_flags>
0

> <s_epik_input>
W0NIM11PQyg9TylbTkhdYyhbY0hdW2NIXTEpW2NIXWMoYzEyKVtOSF1DKD1PKVtDQEhdKFtDSDNdKVtDSDJdW0NIMl1bQ0gyXVtDQEBIXShjM1tjSF1jMltjSF1bY0hdbjMpTjRbQ0gyXVtDSDJdQyg9W0NIXUM0PU8pYzVbY0hdYyhDbClbY0hdW2NIXWM1QyhGKShGKUY=

> <s_epik_cmdline>
J2VwaWtfcHl0aG9uJywgJy1waHQnLCAnMC41JywgJy1waCcsICc3LjUnLCAnLW50JywgJy1tYScsICcyMDAnLCAnLWltYWUnLCAnPGluZmlsZS5tYWU+JywgJy1vbWFlJywgJzxvdXRmaWxlLm1hZT4n

> <r_lp_tautomer_probability>
1

> <r_epik_Ionization_Penalty>
  0.0001

> <r_epik_Ionization_Penalty_Charging>
  0.0000

> <r_epik_Ionization_Penalty_Neutral>
  0.0001

> <r_epik_State_Penalty>
 -0.0000

> <r_epik_Charging_Adjusted_Penalty>
0

> <i_epik_Tot_Q>
0

> <i_epik_Tot_abs_Q>
0

> <s_epik_Chemistry_Notes>
This compound has an ester and may undergo hydrolysis at high or low pH.

> <s_lp_Force_Field>
OPLS3e

> <r_lp_Energy>
95.343908

> <b_lp_Chiralities_Consistent>
1

> <s_lp_Variant>
sdf/actives_sanitized.sdf:196-1

$$$$
sdf/actives_sanitized.sdf:197
                    3D
 Schrodinger Suite 2020-1.
 77 82  0  0  1  0            999 V2000
  -10.1944   -6.4212   -1.8234 C   0  0  0  0  0  0
   -9.4117   -5.3097   -2.2374 O   0  0  0  0  0  0
   -8.0934   -5.2513   -1.9604 C   0  0  0  0  0  0
   -7.4732   -6.1208   -1.3443 O   0  0  0  0  0  0
   -7.5907   -4.0615   -2.4781 N   0  0  0  0  0  0
   -6.2749   -3.5690   -2.4692 C   0  0  0  0  0  0
   -5.1570   -4.2965   -2.0364 C   0  0  0  0  0  0
   -3.8883   -3.7218   -2.0759 C   0  0  0  0  0  0
   -3.6977   -2.4186   -2.5475 C   0  0  0  0  0  0
   -4.8271   -1.6793   -2.9627 C   0  0  0  0  0  0
   -4.7486   -0.3684   -3.4601 N   0  0  0  0  0  0
   -4.4981    0.7689   -2.7716 C   0  0  0  0  0  0
   -4.5300    1.8470   -3.3636 O   0  0  0  0  0  0
   -4.1694    0.7658   -1.2543 C   0  0  2  0  0  0
   -5.3084    1.4145   -0.4416 C   0  0  0  0  0  0
   -2.7993    1.4554   -0.9845 C   0  0  0  0  0  0
   -2.1590    1.1313    0.3918 C   0  0  0  0  0  0
   -0.6067    1.0727    0.3863 C   0  0  0  0  0  0
    0.0250   -0.3081    0.0114 C   0  0  2  0  0  0
    1.5072   -0.3255    0.1037 N   0  0  0  0  0  0
    2.2865    0.8570   -0.3731 C   0  0  0  0  0  0
    3.7354    0.5092   -0.8100 C   0  0  0  0  0  0
    4.3496   -0.4241    0.2130 C   0  0  0  0  0  0
    3.5581   -1.3480    0.7884 C   0  0  0  0  0  0
    2.1284   -1.4504    0.5902 C   0  0  0  0  0  0
    1.5446   -2.5038    0.8515 O   0  0  0  0  0  0
    5.8192   -0.5368    0.3197 C   0  0  0  0  0  0
    6.4824   -1.4911   -0.4698 C   0  0  0  0  0  0
    5.7755   -2.2946   -1.3020 F   0  0  0  0  0  0
    7.8711   -1.6226   -0.4091 C   0  0  0  0  0  0
    8.6862   -2.7992   -1.3773 Cl  0  0  0  0  0  0
    8.6097   -0.8007    0.4361 C   0  0  0  0  0  0
    7.9648    0.1531    1.2179 C   0  0  0  0  0  0
    6.5731    0.3050    1.1688 C   0  0  0  0  0  0
    5.9882    1.3561    2.0670 C   0  0  0  0  0  0
    6.3799    1.7061    3.3674 C   0  0  0  0  0  0
    5.6340    2.6775    3.8282 N   0  0  0  0  0  0
    4.8106    2.9025    2.8016 N   0  0  3  0  0  0
    4.9895    2.1367    1.7207 N   0  0  0  0  0  0
   -0.5107   -0.8484   -1.3181 C   0  0  0  0  0  0
   -1.6945   -1.5890   -1.3275 C   0  0  0  0  0  0
   -2.3283   -1.8464   -2.5458 C   0  0  0  0  0  0
   -1.6811   -1.4703   -3.7292 C   0  0  0  0  0  0
   -0.4482   -0.8197   -3.6453 C   0  0  0  0  0  0
    0.1318   -0.4885   -2.4635 N   0  0  0  0  0  0
   -6.0959   -2.2661   -2.9385 C   0  0  0  0  0  0
  -11.2224   -6.2965   -2.1634 H   0  0  0  0  0  0
  -10.2037   -6.5094   -0.7359 H   0  0  0  0  0  0
   -9.8091   -7.3516   -2.2436 H   0  0  0  0  0  0
   -8.2665   -3.4602   -2.9260 H   0  0  0  0  0  0
   -5.2372   -5.3085   -1.6742 H   0  0  0  0  0  0
   -3.0412   -4.3021   -1.7391 H   0  0  0  0  0  0
   -5.0194   -0.2590   -4.4265 H   0  0  0  0  0  0
   -4.0992   -0.2645   -0.9129 H   0  0  0  0  0  0
   -6.2590    0.9064   -0.6113 H   0  0  0  0  0  0
   -5.4463    2.4647   -0.7035 H   0  0  0  0  0  0
   -5.1049    1.3657    0.6285 H   0  0  0  0  0  0
   -2.1008    1.1824   -1.7747 H   0  0  0  0  0  0
   -2.8977    2.5374   -1.0896 H   0  0  0  0  0  0
   -2.4842    1.8929    1.1020 H   0  0  0  0  0  0
   -2.5475    0.1948    0.7931 H   0  0  0  0  0  0
   -0.2286    1.8681   -0.2561 H   0  0  0  0  0  0
   -0.2641    1.3260    1.3906 H   0  0  0  0  0  0
   -0.3483   -0.9911    0.7775 H   0  0  0  0  0  0
    1.7381    1.4426   -1.1107 H   0  0  0  0  0  0
    2.3729    1.5114    0.4955 H   0  0  0  0  0  0
    3.6877   -0.0052   -1.7710 H   0  0  0  0  0  0
    4.3321    1.4106   -0.9527 H   0  0  0  0  0  0
    4.0114   -2.0937    1.4266 H   0  0  0  0  0  0
    9.6845   -0.8979    0.4870 H   0  0  0  0  0  0
    8.5620    0.7822    1.8622 H   0  0  0  0  0  0
    7.1745    1.2616    3.9488 H   0  0  0  0  0  0
   -2.1836   -1.8441   -0.3983 H   0  0  0  0  0  0
   -2.1340   -1.6589   -4.6917 H   0  0  0  0  0  0
    0.0746   -0.5144   -4.5395 H   0  0  0  0  0  0
   -6.9517   -1.6977   -3.2776 H   0  0  0  0  0  0
    4.0946    3.6136    2.8387 H   0  0  0  0  0  0
  1  2  1  0  0  0
  1 47  1  0  0  0
  1 48  1  0  0  0
  1 49  1  0  0  0
  2  3  1  0  0  0
  3  4  2  0  0  0
  3  5  1  0  0  0
  5  6  1  0  0  0
  5 50  1  0  0  0
  6  7  2  0  0  0
  6 46  1  0  0  0
  7  8  1  0  0  0
  7 51  1  0  0  0
  8  9  2  0  0  0
  8 52  1  0  0  0
  9 10  1  0  0  0
  9 42  1  0  0  0
 10 11  1  0  0  0
 10 46  2  0  0  0
 11 12  1  0  0  0
 11 53  1  0  0  0
 12 13  2  0  0  0
 12 14  1  0  0  0
 14 15  1  0  0  0
 14 16  1  0  0  0
 14 54  1  0  0  0
 15 55  1  0  0  0
 15 56  1  0  0  0
 15 57  1  0  0  0
 16 17  1  0  0  0
 16 58  1  0  0  0
 16 59  1  0  0  0
 17 18  1  0  0  0
 17 60  1  0  0  0
 17 61  1  0  0  0
 18 19  1  0  0  0
 18 62  1  0  0  0
 18 63  1  0  0  0
 19 20  1  0  0  0
 19 40  1  0  0  0
 19 64  1  0  0  0
 20 21  1  0  0  0
 20 25  1  0  0  0
 21 22  1  0  0  0
 21 65  1  0  0  0
 21 66  1  0  0  0
 22 23  1  0  0  0
 22 67  1  0  0  0
 22 68  1  0  0  0
 23 24  2  0  0  0
 23 27  1  0  0  0
 24 25  1  0  0  0
 24 69  1  0  0  0
 25 26  2  0  0  0
 27 28  2  0  0  0
 27 34  1  0  0  0
 28 29  1  0  0  0
 28 30  1  0  0  0
 30 31  1  0  0  0
 30 32  2  0  0  0
 32 33  1  0  0  0
 32 70  1  0  0  0
 33 34  2  0  0  0
 33 71  1  0  0  0
 34 35  1  0  0  0
 35 36  1  0  0  0
 35 39  2  0  0  0
 36 37  2  0  0  0
 36 72  1  0  0  0
 37 38  1  0  0  0
 38 39  1  0  0  0
 38 77  1  0  0  0
 40 41  1  0  0  0
 40 45  2  0  0  0
 41 42  2  0  0  0
 41 73  1  0  0  0
 42 43  1  0  0  0
 43 44  2  0  0  0
 43 74  1  0  0  0
 44 45  1  0  0  0
 44 75  1  0  0  0
 46 76  1  0  0  0
M  END
> <chembl_id>
CHEMBL4115423

> <chembl_pref_name>
None

> <i_m_ct_stereo_status>
1

> <s_m_source_file>
sdf/actives_sanitized.sdf

> <i_m_source_file_index>
197

> <i_lp_mmshare_version>
49012

> <i_f3d_flags>
0

> <s_epik_input>
W0NIM11PQyg9TylbTkhdYyhbY0hdW2NIXTEpW2NIXWMoYzEyKVtOSF1DKD1PKVtDQEhdKFtDSDNdKVtDSDJdW0NIMl1bQ0gyXVtDQEBIXShjM1tjSF1jMltjSF1bY0hdbjMpTjRbQ0gyXVtDSDJdQyg9W0NIXUM0PU8pYzVjKEYpYyhDbClbY0hdW2NIXWM1LWM2W2NIXVtuSF1ubjY=

> <s_epik_cmdline>
J2VwaWtfcHl0aG9uJywgJy1waHQnLCAnMC41JywgJy1waCcsICc3LjUnLCAnLW50JywgJy1tYScsICcyMDAnLCAnLWltYWUnLCAnPGluZmlsZS5tYWU+JywgJy1vbWFlJywgJzxvdXRmaWxlLm1hZT4n

> <r_lp_tautomer_probability>
0.652347652347652

> <r_epik_Ionization_Penalty>
  0.4753

> <r_epik_Ionization_Penalty_Charging>
  0.0000

> <r_epik_Ionization_Penalty_Neutral>
  0.4753

> <r_epik_State_Penalty>
  0.4523

> <r_epik_Charging_Adjusted_Penalty>
0.452308146660038

> <i_epik_Tot_Q>
0

> <i_epik_Tot_abs_Q>
0

> <s_epik_Chemistry_Notes>
This compound has an ester and may undergo hydrolysis at high or low pH.

> <s_lp_Force_Field>
OPLS3e

> <r_lp_Energy>
98.140559

> <b_lp_Chiralities_Consistent>
1

> <s_lp_Variant>
sdf/actives_sanitized.sdf:197-1

$$$$
sdf/actives_sanitized.sdf:198
                    3D
 Schrodinger Suite 2020-1.
 65 69  0  0  1  0            999 V2000
   -5.2547    1.7603   -0.9269 C   0  0  0  0  0  0
   -4.1406    0.9402   -1.6089 C   0  0  2  0  0  0
   -2.7530    1.6363   -1.4877 C   0  0  0  0  0  0
   -2.1059    1.5723   -0.0784 C   0  0  0  0  0  0
   -0.5557    1.4766   -0.0809 C   0  0  0  0  0  0
    0.0402    0.0347   -0.1850 C   0  0  2  0  0  0
    1.5215   -0.0023   -0.0919 N   0  0  0  0  0  0
    2.3304    1.0474   -0.7818 C   0  0  0  0  0  0
    3.7580    0.5683   -1.1610 C   0  0  0  0  0  0
    4.3668   -0.1603    0.0236 C   0  0  0  0  0  0
    3.5494   -0.9228    0.7763 C   0  0  0  0  0  0
    2.1169   -1.0279    0.6014 C   0  0  0  0  0  0
    1.5097   -1.9982    1.0580 O   0  0  0  0  0  0
    5.8377   -0.2813    0.1704 C   0  0  0  0  0  0
    6.4490   -0.0253    1.4098 C   0  0  0  0  0  0
    5.7084    0.3437    2.4820 F   0  0  0  0  0  0
    7.8316   -0.1331    1.5557 C   0  0  0  0  0  0
    8.6240   -0.4968    0.4706 C   0  0  0  0  0  0
    8.0354   -0.7535   -0.7660 C   0  0  0  0  0  0
    9.0327   -1.2081   -2.1019 Cl  0  0  0  0  0  0
    6.6493   -0.6461   -0.9183 C   0  0  0  0  0  0
    6.0972   -0.9161   -2.1257 F   0  0  0  0  0  0
   -0.5148   -0.7362   -1.3863 C   0  0  0  0  0  0
   -1.7132   -1.4396   -1.2509 C   0  0  0  0  0  0
   -2.3610   -1.9093   -2.3959 C   0  0  0  0  0  0
   -1.7154   -1.7787   -3.6315 C   0  0  0  0  0  0
   -0.4686   -1.1508   -3.6766 C   0  0  0  0  0  0
    0.1269   -0.6139   -2.5811 N   0  0  0  0  0  0
   -3.7403   -2.4443   -2.2814 C   0  0  0  0  0  0
   -3.9476   -3.6330   -1.5726 C   0  0  0  0  0  0
   -5.2254   -4.1681   -1.4136 C   0  0  0  0  0  0
   -5.4216   -5.7973   -0.4384 Br  0  0  0  0  0  0
   -6.3282   -3.5083   -1.9673 C   0  0  0  0  0  0
   -7.6199   -4.0197   -1.8324 N   0  0  0  0  0  0
   -6.1400   -2.3172   -2.6686 C   0  0  0  0  0  0
   -4.8615   -1.7721   -2.8161 C   0  0  0  0  0  0
   -4.7663   -0.5809   -3.5531 N   0  0  0  0  0  0
   -4.4879    0.6614   -3.0958 C   0  0  0  0  0  0
   -4.5089    1.6079   -3.8818 O   0  0  0  0  0  0
   -6.2191    1.2539   -0.9905 H   0  0  0  0  0  0
   -5.3710    2.7446   -1.3833 H   0  0  0  0  0  0
   -5.0406    1.9113    0.1316 H   0  0  0  0  0  0
   -4.0895   -0.0072   -1.0767 H   0  0  0  0  0  0
   -2.0694    1.1982   -2.2139 H   0  0  0  0  0  0
   -2.8289    2.6789   -1.8015 H   0  0  0  0  0  0
   -2.4065    2.4659    0.4704 H   0  0  0  0  0  0
   -2.5110    0.7416    0.5004 H   0  0  0  0  0  0
   -0.1663    2.1237   -0.8671 H   0  0  0  0  0  0
   -0.1983    1.9108    0.8540 H   0  0  0  0  0  0
   -0.3456   -0.4801    0.6976 H   0  0  0  0  0  0
    1.7906    1.5065   -1.6098 H   0  0  0  0  0  0
    2.4545    1.8453   -0.0482 H   0  0  0  0  0  0
    3.6633   -0.1214   -2.0009 H   0  0  0  0  0  0
    4.3781    1.4049   -1.4845 H   0  0  0  0  0  0
    3.9809   -1.5382    1.5536 H   0  0  0  0  0  0
    8.2911    0.0689    2.5122 H   0  0  0  0  0  0
    9.6944   -0.5798    0.5916 H   0  0  0  0  0  0
   -2.2004   -1.5041   -0.2884 H   0  0  0  0  0  0
   -2.1784   -2.1376   -4.5393 H   0  0  0  0  0  0
    0.0544   -1.0335   -4.6141 H   0  0  0  0  0  0
   -3.1040   -4.1520   -1.1403 H   0  0  0  0  0  0
   -8.3604   -3.6051   -2.3795 H   0  0  0  0  0  0
   -7.7264   -4.9512   -1.4563 H   0  0  0  0  0  0
   -6.9934   -1.8073   -3.0947 H   0  0  0  0  0  0
   -5.0513   -0.6511   -4.5189 H   0  0  0  0  0  0
  1  2  1  0  0  0
  1 40  1  0  0  0
  1 41  1  0  0  0
  1 42  1  0  0  0
  2  3  1  0  0  0
  2 38  1  0  0  0
  2 43  1  0  0  0
  3  4  1  0  0  0
  3 44  1  0  0  0
  3 45  1  0  0  0
  4  5  1  0  0  0
  4 46  1  0  0  0
  4 47  1  0  0  0
  5  6  1  0  0  0
  5 48  1  0  0  0
  5 49  1  0  0  0
  6  7  1  0  0  0
  6 23  1  0  0  0
  6 50  1  0  0  0
  7  8  1  0  0  0
  7 12  1  0  0  0
  8  9  1  0  0  0
  8 51  1  0  0  0
  8 52  1  0  0  0
  9 10  1  0  0  0
  9 53  1  0  0  0
  9 54  1  0  0  0
 10 11  2  0  0  0
 10 14  1  0  0  0
 11 12  1  0  0  0
 11 55  1  0  0  0
 12 13  2  0  0  0
 14 15  2  0  0  0
 14 21  1  0  0  0
 15 16  1  0  0  0
 15 17  1  0  0  0
 17 18  2  0  0  0
 17 56  1  0  0  0
 18 19  1  0  0  0
 18 57  1  0  0  0
 19 20  1  0  0  0
 19 21  2  0  0  0
 21 22  1  0  0  0
 23 24  1  0  0  0
 23 28  2  0  0  0
 24 25  2  0  0  0
 24 58  1  0  0  0
 25 26  1  0  0  0
 25 29  1  0  0  0
 26 27  2  0  0  0
 26 59  1  0  0  0
 27 28  1  0  0  0
 27 60  1  0  0  0
 29 30  2  0  0  0
 29 36  1  0  0  0
 30 31  1  0  0  0
 30 61  1  0  0  0
 31 32  1  0  0  0
 31 33  2  0  0  0
 33 34  1  0  0  0
 33 35  1  0  0  0
 34 62  1  0  0  0
 34 63  1  0  0  0
 35 36  2  0  0  0
 35 64  1  0  0  0
 36 37  1  0  0  0
 37 38  1  0  0  0
 37 65  1  0  0  0
 38 39  2  0  0  0
M  END
> <chembl_id>
CHEMBL4114450

> <chembl_pref_name>
None

> <i_m_ct_stereo_status>
1

> <s_m_source_file>
sdf/actives_sanitized.sdf

> <i_m_source_file_index>
198

> <i_lp_mmshare_version>
49012

> <i_f3d_flags>
0

> <s_epik_input>
bjFbY0hdW2NIXWMoW2NIXWMxMiljM2MoW2NIXWMoW05IMl0pYyhCcilbY0hdMylbTkhdQyg9TylbQ0BIXShbQ0gzXSlbQ0gyXVtDSDJdW0NIMl1bQ0BASF0yTjRbQ0gyXVtDSDJdQyg9W0NIXUM0PU8pYzVjKEYpW2NIXVtjSF1jKENsKWM1Rg==

> <s_epik_cmdline>
J2VwaWtfcHl0aG9uJywgJy1waHQnLCAnMC41JywgJy1waCcsICc3LjUnLCAnLW50JywgJy1tYScsICcyMDAnLCAnLWltYWUnLCAnPGluZmlsZS5tYWU+JywgJy1vbWFlJywgJzxvdXRmaWxlLm1hZT4n

> <r_lp_tautomer_probability>
1

> <r_epik_Ionization_Penalty>
  0.0001

> <r_epik_Ionization_Penalty_Charging>
  0.0000

> <r_epik_Ionization_Penalty_Neutral>
  0.0001

> <r_epik_State_Penalty>
 -0.0000

> <r_epik_Charging_Adjusted_Penalty>
0

> <i_epik_Tot_Q>
0

> <i_epik_Tot_abs_Q>
0

> <s_lp_Force_Field>
OPLS3e

> <r_lp_Energy>
91.721558

> <b_lp_Chiralities_Consistent>
1

> <s_lp_Variant>
sdf/actives_sanitized.sdf:198-1

$$$$
sdf/actives_sanitized.sdf:199
                    3D
 Schrodinger Suite 2020-1.
 61 66  0  0  1  0            999 V2000
   -0.4290    1.3726    0.1165 C   0  0  0  0  0  0
   -1.2702    1.9682   -0.8387 C   0  0  0  0  0  0
   -1.6285    3.3095   -0.7352 C   0  0  0  0  0  0
   -1.1509    4.0738    0.3244 C   0  0  0  0  0  0
   -0.3175    3.5070    1.2828 C   0  0  0  0  0  0
    0.0387    2.1658    1.1788 C   0  0  0  0  0  0
   -4.8343   -1.9760   -4.0424 C   0  0  0  0  0  0
   -5.1537   -1.8572   -2.6898 C   0  0  0  0  0  0
   -2.4859   -1.5192   -3.5888 C   0  0  0  0  0  0
   -3.5207   -1.8097   -4.4747 C   0  0  0  0  0  0
   -2.8132   -1.3967   -2.2307 C   0  0  0  0  0  0
   -4.1423   -1.5681   -1.7518 C   0  0  0  0  0  0
   -4.1120   -1.3845   -0.3198 C   0  0  0  0  0  0
   -2.0161   -1.1068   -1.1395 N   0  0  0  0  0  0
   -2.7782   -1.1300    0.0224 C   0  0  0  0  0  0
   -2.1366   -0.8358    1.3809 C   0  0  0  0  0  0
   -0.5966   -0.8633    1.2964 C   0  0  0  0  0  0
   -0.0223   -0.1277    0.0475 C   0  0  1  0  0  0
   -0.5590   -0.9062   -1.2010 C   0  0  0  0  0  0
    1.4552   -0.1069    0.0372 N   0  0  0  0  0  0
    2.3252   -1.1339    0.1425 C   0  0  0  0  0  0
    3.7856   -0.7532    0.0468 C   0  0  0  0  0  0
    1.9885   -2.3048    0.3192 O   0  0  0  0  0  0
    4.2374    0.4159    0.6808 C   0  0  0  0  0  0
    5.5750    0.7993    0.6169 C   0  0  0  0  0  0
    6.4957    0.0221   -0.0910 C   0  0  0  0  0  0
    6.0570   -1.1388   -0.7359 C   0  0  0  0  0  0
    4.7171   -1.5290   -0.6774 C   0  0  0  0  0  0
    4.2758   -2.9650   -1.5449 Cl  0  0  0  0  0  0
    7.8526    0.4065   -0.1567 N   0  0  0  0  0  0
   -5.9332   -2.2854   -5.0435 C   0  0  0  0  0  0
    8.5859    1.1493    0.7430 C   0  0  0  0  0  0
    9.8262    1.3119    0.3558 N   0  0  0  0  0  0
    9.9541    0.6552   -0.8638 N   0  0  0  0  0  0
    8.7834    0.1349   -1.1358 C   0  0  0  0  0  0
   -5.2620   -1.4516    0.5993 C   0  0  0  0  0  0
   -5.0722   -1.1200    1.7906 O   0  0  0  0  0  0
   -6.3556   -1.8326    0.1271 O   0  5  0  0  0  0
   -1.6600    1.4130   -1.6768 H   0  0  0  0  0  0
   -2.2765    3.7548   -1.4756 H   0  0  0  0  0  0
   -1.4302    5.1141    0.4038 H   0  0  0  0  0  0
    0.0491    4.1039    2.1048 H   0  0  0  0  0  0
    0.6828    1.7395    1.9340 H   0  0  0  0  0  0
   -6.1772   -1.9902   -2.3723 H   0  0  0  0  0  0
   -1.4757   -1.3922   -3.9486 H   0  0  0  0  0  0
   -3.2888   -1.9053   -5.5256 H   0  0  0  0  0  0
   -2.4623    0.1448    1.7294 H   0  0  0  0  0  0
   -2.4675   -1.5536    2.1320 H   0  0  0  0  0  0
   -0.1639   -0.4761    2.2197 H   0  0  0  0  0  0
   -0.3047   -1.9136    1.2732 H   0  0  0  0  0  0
   -0.1050   -1.8953   -1.2725 H   0  0  0  0  0  0
   -0.2917   -0.3909   -2.1247 H   0  0  0  0  0  0
    1.8448    0.7451   -0.3386 H   0  0  0  0  0  0
    3.5543    1.0381    1.2423 H   0  0  0  0  0  0
    5.8824    1.7059    1.1176 H   0  0  0  0  0  0
    6.7546   -1.7515   -1.2886 H   0  0  0  0  0  0
   -5.5663   -2.2984   -6.0707 H   0  0  0  0  0  0
   -6.7242   -1.5377   -4.9758 H   0  0  0  0  0  0
   -6.3813   -3.2546   -4.8227 H   0  0  0  0  0  0
    8.1387    1.5214    1.6530 H   0  0  0  0  0  0
    8.5189   -0.4391   -2.0115 H   0  0  0  0  0  0
  1  2  2  0  0  0
  1  6  1  0  0  0
  1 18  1  0  0  0
  2  3  1  0  0  0
  2 39  1  0  0  0
  3  4  2  0  0  0
  3 40  1  0  0  0
  4  5  1  0  0  0
  4 41  1  0  0  0
  5  6  2  0  0  0
  5 42  1  0  0  0
  6 43  1  0  0  0
  7  8  2  0  0  0
  7 10  1  0  0  0
  7 31  1  0  0  0
  8 12  1  0  0  0
  8 44  1  0  0  0
  9 11  1  0  0  0
  9 10  2  0  0  0
  9 45  1  0  0  0
 10 46  1  0  0  0
 11 12  2  0  0  0
 11 14  1  0  0  0
 12 13  1  0  0  0
 13 15  2  0  0  0
 13 36  1  0  0  0
 14 15  1  0  0  0
 14 19  1  0  0  0
 15 16  1  0  0  0
 16 17  1  0  0  0
 16 47  1  0  0  0
 16 48  1  0  0  0
 17 18  1  0  0  0
 17 49  1  0  0  0
 17 50  1  0  0  0
 18 19  1  0  0  0
 18 20  1  0  0  0
 19 51  1  0  0  0
 19 52  1  0  0  0
 20 21  1  0  0  0
 20 53  1  0  0  0
 21 22  1  0  0  0
 21 23  2  0  0  0
 22 24  2  0  0  0
 22 28  1  0  0  0
 24 25  1  0  0  0
 24 54  1  0  0  0
 25 26  2  0  0  0
 25 55  1  0  0  0
 26 27  1  0  0  0
 26 30  1  0  0  0
 27 28  2  0  0  0
 27 56  1  0  0  0
 28 29  1  0  0  0
 30 32  1  0  0  0
 30 35  1  0  0  0
 31 57  1  0  0  0
 31 58  1  0  0  0
 31 59  1  0  0  0
 32 33  2  0  0  0
 32 60  1  0  0  0
 33 34  1  0  0  0
 34 35  2  0  0  0
 35 61  1  0  0  0
 36 37  2  0  0  0
 36 38  1  0  0  0
M  CHG  1  38  -1
M  END
> <chembl_id>
CHEMBL3629111

> <chembl_pref_name>
None

> <i_m_ct_stereo_status>
1

> <s_m_source_file>
sdf/actives_sanitized.sdf

> <i_m_source_file_index>
199

> <i_lp_mmshare_version>
49012

> <i_f3d_flags>
0

> <s_epik_input>
W2NIXTFbY0hdYyhbQ0gzXSlbY0hdYyhjMTIpYyhDKD1PKVtPSF0pYzNuMltDSDJdW0NAXShbQ0gyXVtDSDJdMykoYzRbY0hdW2NIXVtjSF1bY0hdW2NIXTQpW05IXUMoPU8pYzVbY0hdW2NIXWMoW2NIXWM1Q2wpLW42W2NIXW5uW2NIXTY=

> <s_epik_cmdline>
J2VwaWtfcHl0aG9uJywgJy1waHQnLCAnMC41JywgJy1waCcsICc3LjUnLCAnLW50JywgJy1tYScsICcyMDAnLCAnLWltYWUnLCAnPGluZmlsZS5tYWU+JywgJy1vbWFlJywgJzxvdXRmaWxlLm1hZT4n

> <r_lp_tautomer_probability>
1

> <r_epik_Ionization_Penalty>
  0.0019

> <r_epik_Ionization_Penalty_Charging>
  0.0018

> <r_epik_Ionization_Penalty_Neutral>
  0.0000

> <r_epik_State_Penalty>
 -0.0000

> <r_epik_Charging_Adjusted_Penalty>
0.00183271537175675

> <i_epik_Tot_Q>
-1

> <i_epik_Tot_abs_Q>
1

> <s_lp_Force_Field>
OPLS3e

> <r_lp_Energy>
54.563115

> <b_lp_Chiralities_Consistent>
1

> <s_lp_Variant>
sdf/actives_sanitized.sdf:199-1

$$$$
sdf/actives_sanitized.sdf:200
                    3D
 Schrodinger Suite 2020-1.
 63 67  0  0  1  0            999 V2000
   -5.3032    0.0590    1.2668 C   0  0  0  0  0  0
   -4.2199    0.1296    0.1700 C   0  0  2  0  0  0
   -3.0364    1.0619    0.6134 C   0  0  0  0  0  0
   -2.1428    1.7303   -0.4752 C   0  0  0  0  0  0
   -0.6043    1.6064   -0.2859 C   0  0  0  0  0  0
    0.0129    0.1784   -0.4507 C   0  0  2  0  0  0
    1.5050    0.1050   -0.3959 N   0  0  0  0  0  0
    2.3024    1.3027    0.0141 C   0  0  0  0  0  0
    3.7687    1.2411   -0.4865 C   0  0  0  0  0  0
    4.3547   -0.1095   -0.1167 C   0  0  0  0  0  0
    3.5331   -1.1770   -0.1626 C   0  0  0  0  0  0
    2.1110   -1.1343   -0.4354 C   0  0  0  0  0  0
    1.5308   -2.1873   -0.7059 O   0  0  0  0  0  0
    5.8240   -0.2984    0.0082 C   0  0  0  0  0  0
    6.3543   -1.0689    1.0591 C   0  0  0  0  0  0
    5.5405   -1.6416    1.9776 F   0  0  0  0  0  0
    7.7314   -1.2449    1.1891 C   0  0  0  0  0  0
    8.6022   -0.6528    0.2794 C   0  0  0  0  0  0
    8.0976    0.1168   -0.7663 C   0  0  0  0  0  0
    9.1924    0.8441   -1.8884 Cl  0  0  0  0  0  0
    6.7170    0.2944   -0.9039 C   0  0  0  0  0  0
    6.2531    1.0324   -1.9408 F   0  0  0  0  0  0
   -0.6362   -0.5277   -1.6467 C   0  0  0  0  0  0
   -1.6777   -1.4227   -1.4153 C   0  0  0  0  0  0
   -2.5049   -1.7894   -2.4768 C   0  0  0  0  0  0
   -2.1682   -1.3660   -3.7679 C   0  0  0  0  0  0
   -1.0424   -0.5542   -3.9353 C   0  0  0  0  0  0
   -0.2915   -0.1082   -2.8945 N   0  0  0  0  0  0
   -3.7578   -2.5248   -2.1909 C   0  0  0  0  0  0
   -3.7170   -3.9179   -2.0662 C   0  0  0  0  0  0
   -4.8673   -4.6413   -1.7549 C   0  0  0  0  0  0
   -6.0776   -3.9780   -1.5619 C   0  0  0  0  0  0
   -7.5018   -4.8735   -1.1773 Cl  0  0  0  0  0  0
   -6.1375   -2.5903   -1.6804 C   0  0  0  0  0  0
   -4.9854   -1.8573   -1.9828 C   0  0  0  0  0  0
   -5.1256   -0.4666   -2.1250 N   0  0  0  0  0  0
   -4.8743    0.4815   -1.1930 C   0  0  0  0  0  0
   -5.1721    1.6528   -1.4226 O   0  0  0  0  0  0
   -6.0794   -0.6673    1.0195 H   0  0  0  0  0  0
   -5.7928    1.0231    1.4149 H   0  0  0  0  0  0
   -4.8752   -0.2425    2.2235 H   0  0  0  0  0  0
   -3.8186   -0.8768    0.1091 H   0  0  0  0  0  0
   -3.4407    1.8721    1.2232 H   0  0  0  0  0  0
   -2.4038    0.4960    1.2988 H   0  0  0  0  0  0
   -2.3982    1.3832   -1.4746 H   0  0  0  0  0  0
   -2.3909    2.7924   -0.5032 H   0  0  0  0  0  0
   -0.1438    2.2725   -1.0170 H   0  0  0  0  0  0
   -0.3437    2.0051    0.6955 H   0  0  0  0  0  0
   -0.3036   -0.3588    0.4453 H   0  0  0  0  0  0
    1.8154    2.2582   -0.1688 H   0  0  0  0  0  0
    2.3812    1.2307    1.1004 H   0  0  0  0  0  0
    3.7594    1.3568   -1.5713 H   0  0  0  0  0  0
    4.3579    2.0587   -0.0697 H   0  0  0  0  0  0
    3.9545   -2.1609   -0.0090 H   0  0  0  0  0  0
    8.1255   -1.8379    2.0014 H   0  0  0  0  0  0
    9.6679   -0.7917    0.3884 H   0  0  0  0  0  0
   -1.9137   -1.7252   -0.4062 H   0  0  0  0  0  0
   -2.7769   -1.6390   -4.6176 H   0  0  0  0  0  0
   -0.7562   -0.2072   -4.9171 H   0  0  0  0  0  0
   -2.7843   -4.4458   -2.2060 H   0  0  0  0  0  0
   -4.8155   -5.7162   -1.6616 H   0  0  0  0  0  0
   -7.0812   -2.0841   -1.5338 H   0  0  0  0  0  0
   -5.5627   -0.1596   -2.9817 H   0  0  0  0  0  0
  1  2  1  0  0  0
  1 39  1  0  0  0
  1 40  1  0  0  0
  1 41  1  0  0  0
  2  3  1  0  0  0
  2 37  1  0  0  0
  2 42  1  0  0  0
  3  4  1  0  0  0
  3 43  1  0  0  0
  3 44  1  0  0  0
  4  5  1  0  0  0
  4 45  1  0  0  0
  4 46  1  0  0  0
  5  6  1  0  0  0
  5 47  1  0  0  0
  5 48  1  0  0  0
  6  7  1  0  0  0
  6 23  1  0  0  0
  6 49  1  0  0  0
  7  8  1  0  0  0
  7 12  1  0  0  0
  8  9  1  0  0  0
  8 50  1  0  0  0
  8 51  1  0  0  0
  9 10  1  0  0  0
  9 52  1  0  0  0
  9 53  1  0  0  0
 10 11  2  0  0  0
 10 14  1  0  0  0
 11 12  1  0  0  0
 11 54  1  0  0  0
 12 13  2  0  0  0
 14 15  2  0  0  0
 14 21  1  0  0  0
 15 16  1  0  0  0
 15 17  1  0  0  0
 17 18  2  0  0  0
 17 55  1  0  0  0
 18 19  1  0  0  0
 18 56  1  0  0  0
 19 20  1  0  0  0
 19 21  2  0  0  0
 21 22  1  0  0  0
 23 24  1  0  0  0
 23 28  2  0  0  0
 24 25  2  0  0  0
 24 57  1  0  0  0
 25 26  1  0  0  0
 25 29  1  0  0  0
 26 27  2  0  0  0
 26 58  1  0  0  0
 27 28  1  0  0  0
 27 59  1  0  0  0
 29 30  2  0  0  0
 29 35  1  0  0  0
 30 31  1  0  0  0
 30 60  1  0  0  0
 31 32  2  0  0  0
 31 61  1  0  0  0
 32 33  1  0  0  0
 32 34  1  0  0  0
 34 35  2  0  0  0
 34 62  1  0  0  0
 35 36  1  0  0  0
 36 37  1  0  0  0
 36 63  1  0  0  0
 37 38  2  0  0  0
M  END
> <chembl_id>
CHEMBL4108970

> <chembl_pref_name>
None

> <i_m_ct_stereo_status>
1

> <s_m_source_file>
sdf/actives_sanitized.sdf

> <i_m_source_file_index>
200

> <i_lp_mmshare_version>
49012

> <i_f3d_flags>
0

> <s_epik_input>
bjFbY0hdW2NIXWMoW2NIXWMxMiljM2MoW2NIXWMoQ2wpW2NIXVtjSF0zKVtOSF1DKD1PKVtDQEhdKFtDSDNdKVtDSDJdW0NIMl1bQ0gyXVtDQEBIXTJONFtDSDJdW0NIMl1DKD1bQ0hdQzQ9TyljNWMoRilbY0hdW2NIXWMoQ2wpYzVG

> <s_epik_cmdline>
J2VwaWtfcHl0aG9uJywgJy1waHQnLCAnMC41JywgJy1waCcsICc3LjUnLCAnLW50JywgJy1tYScsICcyMDAnLCAnLWltYWUnLCAnPGluZmlsZS5tYWU+JywgJy1vbWFlJywgJzxvdXRmaWxlLm1hZT4n

> <r_lp_tautomer_probability>
1

> <r_epik_Ionization_Penalty>
  0.0001

> <r_epik_Ionization_Penalty_Charging>
  0.0000

> <r_epik_Ionization_Penalty_Neutral>
  0.0001

> <r_epik_State_Penalty>
 -0.0000

> <r_epik_Charging_Adjusted_Penalty>
0

> <i_epik_Tot_Q>
0

> <i_epik_Tot_abs_Q>
0

> <s_lp_Force_Field>
OPLS3e

> <r_lp_Energy>
96.455001

> <b_lp_Chiralities_Consistent>
1

> <s_lp_Variant>
sdf/actives_sanitized.sdf:200-1

$$$$
sdf/actives_sanitized.sdf:201
                    3D
 Schrodinger Suite 2020-1.
 74 78  0  0  1  0            999 V2000
  -10.2688   -6.1258   -0.6322 C   0  0  0  0  0  0
   -9.4939   -5.0950   -1.2296 O   0  0  0  0  0  0
   -8.1586   -5.0418   -1.0487 C   0  0  0  0  0  0
   -7.5168   -5.8487   -0.3726 O   0  0  0  0  0  0
   -7.6669   -3.9400   -1.7429 N   0  0  0  0  0  0
   -6.3449   -3.4802   -1.8713 C   0  0  0  0  0  0
   -5.2202   -4.1378   -1.3525 C   0  0  0  0  0  0
   -3.9473   -3.6031   -1.5388 C   0  0  0  0  0  0
   -3.7588   -2.4101   -2.2445 C   0  0  0  0  0  0
   -4.8933   -1.7369   -2.7481 C   0  0  0  0  0  0
   -4.8167   -0.5409   -3.4804 N   0  0  0  0  0  0
   -4.5251    0.6991   -3.0242 C   0  0  0  0  0  0
   -4.5652    1.6493   -3.8050 O   0  0  0  0  0  0
   -4.1406    0.9716   -1.5452 C   0  0  2  0  0  0
   -5.2396    1.7853   -0.8315 C   0  0  0  0  0  0
   -2.7512    1.6700   -1.4527 C   0  0  0  0  0  0
   -2.0708    1.5981   -0.0591 C   0  0  0  0  0  0
   -0.5206    1.4971   -0.0950 C   0  0  0  0  0  0
    0.0664    0.0530   -0.2158 C   0  0  2  0  0  0
    1.5489    0.0037   -0.1479 N   0  0  0  0  0  0
    2.3557    1.0568   -0.8357 C   0  0  0  0  0  0
    3.7701    0.5687   -1.2531 C   0  0  0  0  0  0
    4.3912   -0.1949   -0.0977 C   0  0  0  0  0  0
    3.5820   -0.9404    0.6788 C   0  0  0  0  0  0
    2.1468   -1.0357    0.5228 C   0  0  0  0  0  0
    1.5398   -2.0082    0.9754 O   0  0  0  0  0  0
    5.8609   -0.2538    0.0732 C   0  0  0  0  0  0
    6.4027    0.1854    1.2892 C   0  0  0  0  0  0
    7.7793    0.1759    1.5076 C   0  0  0  0  0  0
    8.4200    0.7281    3.0121 Cl  0  0  0  0  0  0
    8.6367   -0.2780    0.5091 C   0  0  0  0  0  0
    8.1154   -0.7257   -0.7026 C   0  0  0  0  0  0
    6.7348   -0.7187   -0.9323 C   0  0  0  0  0  0
    6.2227   -1.2616   -2.2602 C   0  0  0  0  0  0
   -0.5148   -0.7075   -1.4108 C   0  0  0  0  0  0
   -1.7089   -1.4129   -1.2541 C   0  0  0  0  0  0
   -2.3835   -1.8723   -2.3877 C   0  0  0  0  0  0
   -1.7680   -1.7276   -3.6372 C   0  0  0  0  0  0
   -0.5235   -1.0971   -3.7058 C   0  0  0  0  0  0
    0.0981   -0.5715   -2.6192 N   0  0  0  0  0  0
   -6.1674   -2.2858   -2.5734 C   0  0  0  0  0  0
  -11.3181   -6.0024   -0.8996 H   0  0  0  0  0  0
  -10.1897   -6.0951    0.4557 H   0  0  0  0  0  0
   -9.9448   -7.1093   -0.9758 H   0  0  0  0  0  0
   -8.3580   -3.3855   -2.2267 H   0  0  0  0  0  0
   -5.2971   -5.0639   -0.8064 H   0  0  0  0  0  0
   -3.0956   -4.1277   -1.1297 H   0  0  0  0  0  0
   -5.1239   -0.6057   -4.4400 H   0  0  0  0  0  0
   -4.0739    0.0213   -1.0204 H   0  0  0  0  0  0
   -6.2028    1.2738   -0.8699 H   0  0  0  0  0  0
   -5.3733    2.7696   -1.2831 H   0  0  0  0  0  0
   -4.9975    1.9362    0.2210 H   0  0  0  0  0  0
   -2.0842    1.2384   -2.1979 H   0  0  0  0  0  0
   -2.8365    2.7147   -1.7570 H   0  0  0  0  0  0
   -2.3567    2.4899    0.5004 H   0  0  0  0  0  0
   -2.4661    0.7662    0.5251 H   0  0  0  0  0  0
   -0.1446    2.1439   -0.8877 H   0  0  0  0  0  0
   -0.1417    1.9264    0.8337 H   0  0  0  0  0  0
   -0.3071   -0.4630    0.6714 H   0  0  0  0  0  0
    1.8056    1.5357   -1.6454 H   0  0  0  0  0  0
    2.5042    1.8402   -0.0911 H   0  0  0  0  0  0
    3.6404   -0.1018   -2.1034 H   0  0  0  0  0  0
    4.3946    1.4036   -1.5723 H   0  0  0  0  0  0
    4.0214   -1.5399    1.4642 H   0  0  0  0  0  0
    5.7496    0.5453    2.0718 H   0  0  0  0  0  0
    9.7045   -0.2882    0.6719 H   0  0  0  0  0  0
    8.7929   -1.0837   -1.4644 H   0  0  0  0  0  0
    6.9670   -1.8857   -2.7569 H   0  0  0  0  0  0
    5.9462   -0.4461   -2.9288 H   0  0  0  0  0  0
    5.3467   -1.8923   -2.1058 H   0  0  0  0  0  0
   -2.1729   -1.4878   -0.2808 H   0  0  0  0  0  0
   -2.2531   -2.0774   -4.5370 H   0  0  0  0  0  0
   -0.0242   -0.9684   -4.6548 H   0  0  0  0  0  0
   -7.0282   -1.7714   -2.9792 H   0  0  0  0  0  0
  1  2  1  0  0  0
  1 42  1  0  0  0
  1 43  1  0  0  0
  1 44  1  0  0  0
  2  3  1  0  0  0
  3  4  2  0  0  0
  3  5  1  0  0  0
  5  6  1  0  0  0
  5 45  1  0  0  0
  6  7  2  0  0  0
  6 41  1  0  0  0
  7  8  1  0  0  0
  7 46  1  0  0  0
  8  9  2  0  0  0
  8 47  1  0  0  0
  9 10  1  0  0  0
  9 37  1  0  0  0
 10 11  1  0  0  0
 10 41  2  0  0  0
 11 12  1  0  0  0
 11 48  1  0  0  0
 12 13  2  0  0  0
 12 14  1  0  0  0
 14 15  1  0  0  0
 14 16  1  0  0  0
 14 49  1  0  0  0
 15 50  1  0  0  0
 15 51  1  0  0  0
 15 52  1  0  0  0
 16 17  1  0  0  0
 16 53  1  0  0  0
 16 54  1  0  0  0
 17 18  1  0  0  0
 17 55  1  0  0  0
 17 56  1  0  0  0
 18 19  1  0  0  0
 18 57  1  0  0  0
 18 58  1  0  0  0
 19 20  1  0  0  0
 19 35  1  0  0  0
 19 59  1  0  0  0
 20 21  1  0  0  0
 20 25  1  0  0  0
 21 22  1  0  0  0
 21 60  1  0  0  0
 21 61  1  0  0  0
 22 23  1  0  0  0
 22 62  1  0  0  0
 22 63  1  0  0  0
 23 24  2  0  0  0
 23 27  1  0  0  0
 24 25  1  0  0  0
 24 64  1  0  0  0
 25 26  2  0  0  0
 27 28  2  0  0  0
 27 33  1  0  0  0
 28 29  1  0  0  0
 28 65  1  0  0  0
 29 30  1  0  0  0
 29 31  2  0  0  0
 31 32  1  0  0  0
 31 66  1  0  0  0
 32 33  2  0  0  0
 32 67  1  0  0  0
 33 34  1  0  0  0
 34 68  1  0  0  0
 34 69  1  0  0  0
 34 70  1  0  0  0
 35 36  1  0  0  0
 35 40  2  0  0  0
 36 37  2  0  0  0
 36 71  1  0  0  0
 37 38  1  0  0  0
 38 39  2  0  0  0
 38 72  1  0  0  0
 39 40  1  0  0  0
 39 73  1  0  0  0
 41 74  1  0  0  0
M  END
> <chembl_id>
CHEMBL4113149

> <chembl_pref_name>
None

> <i_m_ct_stereo_status>
1

> <s_m_source_file>
sdf/actives_sanitized.sdf

> <i_m_source_file_index>
201

> <i_lp_mmshare_version>
49012

> <i_f3d_flags>
0

> <s_epik_input>
W0NIM11PQyg9TylbTkhdYyhbY0hdW2NIXTEpW2NIXWMoYzEyKVtOSF1DKD1PKVtDQEhdKFtDSDNdKVtDSDJdW0NIMl1bQ0gyXVtDQEBIXShjM1tjSF1jMltjSF1bY0hdbjMpTjRbQ0gyXVtDSDJdQyg9W0NIXUM0PU8pYzVbY0hdYyhDbClbY0hdW2NIXWM1W0NIM10=

> <s_epik_cmdline>
J2VwaWtfcHl0aG9uJywgJy1waHQnLCAnMC41JywgJy1waCcsICc3LjUnLCAnLW50JywgJy1tYScsICcyMDAnLCAnLWltYWUnLCAnPGluZmlsZS5tYWU+JywgJy1vbWFlJywgJzxvdXRmaWxlLm1hZT4n

> <r_lp_tautomer_probability>
1

> <r_epik_Ionization_Penalty>
  0.0001

> <r_epik_Ionization_Penalty_Charging>
  0.0000

> <r_epik_Ionization_Penalty_Neutral>
  0.0001

> <r_epik_State_Penalty>
 -0.0000

> <r_epik_Charging_Adjusted_Penalty>
0

> <i_epik_Tot_Q>
0

> <i_epik_Tot_abs_Q>
0

> <s_epik_Chemistry_Notes>
This compound has an ester and may undergo hydrolysis at high or low pH.

> <s_lp_Force_Field>
OPLS3e

> <r_lp_Energy>
94.183083

> <b_lp_Chiralities_Consistent>
1

> <s_lp_Variant>
sdf/actives_sanitized.sdf:201-1

$$$$
sdf/actives_sanitized.sdf:202
                    3D
 Schrodinger Suite 2020-1.
 68 72  0  0  1  0            999 V2000
   -3.2744    1.6553   -0.1338 C   0  0  0  0  0  0
   -2.1207    0.8529   -0.3448 O   0  0  0  0  0  0
   -0.8881    1.3331   -0.0834 C   0  0  0  0  0  0
   -0.6600    2.4693    0.3376 O   0  0  0  0  0  0
    0.0391    0.3326   -0.3593 N   0  0  0  0  0  0
    1.4404    0.3618   -0.2584 C   0  0  0  0  0  0
    2.1936    1.5136    0.0102 C   0  0  0  0  0  0
    3.5823    1.4389    0.0974 C   0  0  0  0  0  0
    4.2551    0.2253   -0.0792 C   0  0  0  0  0  0
    3.4981   -0.9277   -0.3827 C   0  0  0  0  0  0
    4.0694   -2.1965   -0.5718 N   0  0  0  0  0  0
    4.7987   -2.6335   -1.6241 C   0  0  0  0  0  0
    5.1687   -3.8067   -1.6505 O   0  0  0  0  0  0
    5.1904   -1.7063   -2.8057 C   0  0  2  0  0  0
    4.4675   -2.1276   -4.1014 C   0  0  0  0  0  0
    6.7361   -1.6718   -2.9902 C   0  0  0  0  0  0
    7.2718   -0.4785   -3.8253 C   0  0  0  0  0  0
    8.6621    0.0518   -3.3789 C   0  0  0  0  0  0
    8.6616    1.1371   -2.2478 C   0  0  2  0  0  0
   10.0201    1.6554   -1.9137 N   0  0  0  0  0  0
   11.0913    0.7464   -1.9728 N   0  0  0  0  0  0
   12.2777    1.1047   -1.6307 C   0  0  0  0  0  0
   12.5226    2.4571   -1.1938 C   0  0  0  0  0  0
   11.4858    3.3295   -1.1335 C   0  0  0  0  0  0
   10.1135    2.9604   -1.4543 C   0  0  0  0  0  0
    9.1749    3.7423   -1.2891 O   0  0  0  0  0  0
   13.8872    2.8864   -0.8327 C   0  0  0  0  0  0
   14.7444    3.4220   -1.8056 C   0  0  0  0  0  0
   14.3310    3.5542   -3.0883 F   0  0  0  0  0  0
   16.0353    3.8251   -1.4635 C   0  0  0  0  0  0
   16.4826    3.6995   -0.1497 C   0  0  0  0  0  0
   15.6396    3.1708    0.8275 C   0  0  0  0  0  0
   16.2096    3.0216    2.4519 Cl  0  0  0  0  0  0
   14.3447    2.7651    0.4887 C   0  0  0  0  0  0
   13.5312    2.2520    1.4436 F   0  0  0  0  0  0
    7.8701    0.6678   -1.0190 C   0  0  0  0  0  0
    6.4881    0.8675   -0.9690 C   0  0  0  0  0  0
    5.7368    0.2066    0.0062 C   0  0  0  0  0  0
    6.4135   -0.5282    0.9875 C   0  0  0  0  0  0
    7.8068   -0.6028    0.9320 C   0  0  0  0  0  0
    8.5364   -0.0346   -0.0614 N   0  0  0  0  0  0
    2.1037   -0.8514   -0.4539 C   0  0  0  0  0  0
   -4.1688    1.0999   -0.4159 H   0  0  0  0  0  0
   -3.2357    2.5644   -0.7357 H   0  0  0  0  0  0
   -3.3669    1.9380    0.9159 H   0  0  0  0  0  0
   -0.3467   -0.5460   -0.6726 H   0  0  0  0  0  0
    1.7339    2.4786    0.1506 H   0  0  0  0  0  0
    4.1411    2.3394    0.3085 H   0  0  0  0  0  0
    3.8081   -2.8909    0.1128 H   0  0  0  0  0  0
    4.8563   -0.6952   -2.5841 H   0  0  0  0  0  0
    3.3838   -2.1156   -3.9748 H   0  0  0  0  0  0
    4.7499   -3.1340   -4.4148 H   0  0  0  0  0  0
    4.7024   -1.4492   -4.9221 H   0  0  0  0  0  0
    7.2123   -1.6630   -2.0105 H   0  0  0  0  0  0
    7.0816   -2.6062   -3.4363 H   0  0  0  0  0  0
    7.3310   -0.7975   -4.8669 H   0  0  0  0  0  0
    6.5600    0.3476   -3.8289 H   0  0  0  0  0  0
    9.2894   -0.7970   -3.1023 H   0  0  0  0  0  0
    9.1433    0.4909   -4.2544 H   0  0  0  0  0  0
    8.0945    1.9663   -2.6799 H   0  0  0  0  0  0
   13.0709    0.3647   -1.6857 H   0  0  0  0  0  0
   11.6635    4.3469   -0.8143 H   0  0  0  0  0  0
   16.6907    4.2361   -2.2175 H   0  0  0  0  0  0
   17.4835    4.0140    0.1082 H   0  0  0  0  0  0
    5.9887    1.4195   -1.7524 H   0  0  0  0  0  0
    5.8705   -1.0471    1.7640 H   0  0  0  0  0  0
    8.3574   -1.1637    1.6724 H   0  0  0  0  0  0
    1.5321   -1.7448   -0.6671 H   0  0  0  0  0  0
  1  2  1  0  0  0
  1 43  1  0  0  0
  1 44  1  0  0  0
  1 45  1  0  0  0
  2  3  1  0  0  0
  3  4  2  0  0  0
  3  5  1  0  0  0
  5  6  1  0  0  0
  5 46  1  0  0  0
  6  7  2  0  0  0
  6 42  1  0  0  0
  7  8  1  0  0  0
  7 47  1  0  0  0
  8  9  2  0  0  0
  8 48  1  0  0  0
  9 10  1  0  0  0
  9 38  1  0  0  0
 10 11  1  0  0  0
 10 42  2  0  0  0
 11 12  1  0  0  0
 11 49  1  0  0  0
 12 13  2  0  0  0
 12 14  1  0  0  0
 14 15  1  0  0  0
 14 16  1  0  0  0
 14 50  1  0  0  0
 15 51  1  0  0  0
 15 52  1  0  0  0
 15 53  1  0  0  0
 16 17  1  0  0  0
 16 54  1  0  0  0
 16 55  1  0  0  0
 17 18  1  0  0  0
 17 56  1  0  0  0
 17 57  1  0  0  0
 18 19  1  0  0  0
 18 58  1  0  0  0
 18 59  1  0  0  0
 19 20  1  0  0  0
 19 36  1  0  0  0
 19 60  1  0  0  0
 20 21  1  0  0  0
 20 25  1  0  0  0
 21 22  2  0  0  0
 22 23  1  0  0  0
 22 61  1  0  0  0
 23 24  2  0  0  0
 23 27  1  0  0  0
 24 25  1  0  0  0
 24 62  1  0  0  0
 25 26  2  0  0  0
 27 28  2  0  0  0
 27 34  1  0  0  0
 28 29  1  0  0  0
 28 30  1  0  0  0
 30 31  2  0  0  0
 30 63  1  0  0  0
 31 32  1  0  0  0
 31 64  1  0  0  0
 32 33  1  0  0  0
 32 34  2  0  0  0
 34 35  1  0  0  0
 36 37  1  0  0  0
 36 41  2  0  0  0
 37 38  2  0  0  0
 37 65  1  0  0  0
 38 39  1  0  0  0
 39 40  2  0  0  0
 39 66  1  0  0  0
 40 41  1  0  0  0
 40 67  1  0  0  0
 42 68  1  0  0  0
M  END
> <chembl_id>
CHEMBL4111765

> <chembl_pref_name>
None

> <i_m_ct_stereo_status>
1

> <s_m_source_file>
sdf/actives_sanitized.sdf

> <i_m_source_file_index>
202

> <i_lp_mmshare_version>
49012

> <i_f3d_flags>
0

> <s_epik_input>
W0NIM11PQyg9TylbTkhdYyhbY0hdW2NIXTEpW2NIXWMoYzEyKVtOSF1DKD1PKVtDQEhdKFtDSDNdKVtDSDJdW0NIMl1bQ0gyXVtDQEBIXShjM1tjSF1jMltjSF1bY0hdbjMpbjRuW2NIXWMoW2NIXWM0PU8pLWM1YyhGKVtjSF1bY0hdYyhDbCljNUY=

> <s_epik_cmdline>
J2VwaWtfcHl0aG9uJywgJy1waHQnLCAnMC41JywgJy1waCcsICc3LjUnLCAnLW50JywgJy1tYScsICcyMDAnLCAnLWltYWUnLCAnPGluZmlsZS5tYWU+JywgJy1vbWFlJywgJzxvdXRmaWxlLm1hZT4n

> <r_lp_tautomer_probability>
1

> <r_epik_Ionization_Penalty>
  0.0073

> <r_epik_Ionization_Penalty_Charging>
  0.0000

> <r_epik_Ionization_Penalty_Neutral>
  0.0073

> <r_epik_State_Penalty>
 -0.0000

> <r_epik_Charging_Adjusted_Penalty>
1.20687305880223e-08

> <i_epik_Tot_Q>
0

> <i_epik_Tot_abs_Q>
0

> <s_epik_Chemistry_Notes>
This compound has an ester and may undergo hydrolysis at high or low pH.

> <s_lp_Force_Field>
OPLS3e

> <r_lp_Energy>
89.039334

> <b_lp_Chiralities_Consistent>
1

> <s_lp_Variant>
sdf/actives_sanitized.sdf:202-1

$$$$
sdf/actives_sanitized.sdf:203
                    3D
 Schrodinger Suite 2020-1.
 73 77  0  0  1  0            999 V2000
   -2.7563    2.3974  -12.2339 C   0  0  0  0  0  0
   -2.4246    2.5597  -10.8617 O   0  0  0  0  0  0
   -2.3565    1.4958  -10.0361 C   0  0  0  0  0  0
   -2.5712    0.3322  -10.3825 O   0  0  0  0  0  0
   -2.0058    1.9491   -8.7677 N   0  0  0  0  0  0
   -1.8148    1.2246   -7.5782 C   0  0  0  0  0  0
   -1.9972   -0.1535   -7.4478 C   0  0  0  0  0  0
   -1.7642   -0.7765   -6.2263 C   0  0  0  0  0  0
   -1.3555   -0.0703   -5.0770 C   0  0  0  0  0  0
   -1.1085   -0.8707   -3.8221 C   0  0  0  0  0  0
   -1.7518   -2.0550   -3.5912 C   0  0  0  0  0  0
   -1.6411   -2.8279   -2.3553 C   0  0  0  0  0  0
   -2.0933   -3.9616   -2.2157 O   0  0  0  0  0  0
   -0.9721   -2.1826   -1.3607 N   0  0  0  0  0  0
   -0.3278   -0.9816   -1.5277 C   0  0  0  0  0  0
   -0.2974   -0.3544   -2.7225 C   0  0  0  0  0  0
    0.1394   -0.3105   -0.2376 C   0  0  2  0  0  0
   -0.5097    1.0989   -0.0624 C   0  0  0  0  0  0
   -2.0662    1.0922   -0.1325 C   0  0  0  0  0  0
   -2.7585    2.1865   -0.9891 C   0  0  0  0  0  0
   -2.6369    2.0829   -2.5503 C   0  0  1  0  0  0
   -3.8382    2.7709   -3.2348 C   0  0  0  0  0  0
   -1.3233    2.6872   -3.1097 C   0  0  0  0  0  0
   -0.7990    3.6277   -2.5142 O   0  0  0  0  0  0
   -0.7407    2.2520   -4.2501 N   0  0  0  0  0  0
   -1.1996    1.3419   -5.2195 C   0  0  0  0  0  0
   -1.4081    1.9520   -6.4632 C   0  0  0  0  0  0
    1.6139   -0.3282   -0.1024 N   0  0  0  0  0  0
    2.4202    0.7754   -0.7041 C   0  0  0  0  0  0
    3.8731    0.3486   -1.0443 C   0  0  0  0  0  0
    4.4494   -0.4108    0.1345 C   0  0  0  0  0  0
    3.6279   -1.2157    0.8356 C   0  0  0  0  0  0
    2.2037   -1.3432    0.6116 C   0  0  0  0  0  0
    1.6002   -2.3308    1.0350 O   0  0  0  0  0  0
    5.9211   -0.5046    0.3021 C   0  0  0  0  0  0
    6.5795   -1.6902   -0.0699 C   0  0  0  0  0  0
    5.8705   -2.7395   -0.5534 F   0  0  0  0  0  0
    7.9674   -1.8011    0.0454 C   0  0  0  0  0  0
    8.7721   -3.2622   -0.4055 Cl  0  0  0  0  0  0
    8.7146   -0.7279    0.5224 C   0  0  0  0  0  0
    8.0807    0.4579    0.8822 C   0  0  0  0  0  0
    6.6918    0.5824    0.7734 C   0  0  0  0  0  0
    6.0897    1.8530    1.1736 C   0  0  0  0  0  0
    5.6119    2.8584    1.4894 N   0  0  0  0  0  0
   -2.7623    3.3678  -12.7302 H   0  0  0  0  0  0
   -3.7455    1.9516  -12.3483 H   0  0  0  0  0  0
   -2.0286    1.7616  -12.7403 H   0  0  0  0  0  0
   -1.8640    2.9451   -8.6855 H   0  0  0  0  0  0
   -2.3048   -0.7728   -8.2747 H   0  0  0  0  0  0
   -1.8814   -1.8487   -6.2141 H   0  0  0  0  0  0
   -2.4338   -2.4671   -4.3180 H   0  0  0  0  0  0
   -0.9469   -2.6541   -0.4684 H   0  0  0  0  0  0
    0.2443    0.5687   -2.8021 H   0  0  0  0  0  0
   -0.2878   -0.8914    0.5831 H   0  0  0  0  0  0
   -0.2027    1.5146    0.8985 H   0  0  0  0  0  0
   -0.1084    1.7898   -0.7980 H   0  0  0  0  0  0
   -2.4439    0.1254   -0.4642 H   0  0  0  0  0  0
   -2.4392    1.1800    0.8890 H   0  0  0  0  0  0
   -3.8184    2.1181   -0.7374 H   0  0  0  0  0  0
   -2.4686    3.1762   -0.6326 H   0  0  0  0  0  0
   -2.6988    1.0308   -2.8179 H   0  0  0  0  0  0
   -3.7949    2.6748   -4.3209 H   0  0  0  0  0  0
   -3.8810    3.8361   -3.0015 H   0  0  0  0  0  0
   -4.7817    2.3258   -2.9169 H   0  0  0  0  0  0
   -0.0174    2.8679   -4.5920 H   0  0  0  0  0  0
   -1.2582    3.0192   -6.5657 H   0  0  0  0  0  0
    1.9058    1.2790   -1.5212 H   0  0  0  0  0  0
    2.5072    1.5270    0.0823 H   0  0  0  0  0  0
    3.8439   -0.3124   -1.9115 H   0  0  0  0  0  0
    4.4822    1.2122   -1.3126 H   0  0  0  0  0  0
    4.0522   -1.8458    1.6051 H   0  0  0  0  0  0
    9.7881   -0.8099    0.6110 H   0  0  0  0  0  0
    8.6836    1.2786    1.2461 H   0  0  0  0  0  0
  1  2  1  0  0  0
  1 45  1  0  0  0
  1 46  1  0  0  0
  1 47  1  0  0  0
  2  3  1  0  0  0
  3  4  2  0  0  0
  3  5  1  0  0  0
  5  6  1  0  0  0
  5 48  1  0  0  0
  6  7  2  0  0  0
  6 27  1  0  0  0
  7  8  1  0  0  0
  7 49  1  0  0  0
  8  9  2  0  0  0
  8 50  1  0  0  0
  9 10  1  0  0  0
  9 26  1  0  0  0
 10 11  2  0  0  0
 10 16  1  0  0  0
 11 12  1  0  0  0
 11 51  1  0  0  0
 12 13  2  0  0  0
 12 14  1  0  0  0
 14 15  1  0  0  0
 14 52  1  0  0  0
 15 16  2  0  0  0
 15 17  1  0  0  0
 16 53  1  0  0  0
 17 18  1  0  0  0
 17 28  1  0  0  0
 17 54  1  0  0  0
 18 19  1  0  0  0
 18 55  1  0  0  0
 18 56  1  0  0  0
 19 20  1  0  0  0
 19 57  1  0  0  0
 19 58  1  0  0  0
 20 21  1  0  0  0
 20 59  1  0  0  0
 20 60  1  0  0  0
 21 22  1  0  0  0
 21 23  1  0  0  0
 21 61  1  0  0  0
 22 62  1  0  0  0
 22 63  1  0  0  0
 22 64  1  0  0  0
 23 24  2  0  0  0
 23 25  1  0  0  0
 25 26  1  0  0  0
 25 65  1  0  0  0
 26 27  2  0  0  0
 27 66  1  0  0  0
 28 29  1  0  0  0
 28 33  1  0  0  0
 29 30  1  0  0  0
 29 67  1  0  0  0
 29 68  1  0  0  0
 30 31  1  0  0  0
 30 69  1  0  0  0
 30 70  1  0  0  0
 31 32  2  0  0  0
 31 35  1  0  0  0
 32 33  1  0  0  0
 32 71  1  0  0  0
 33 34  2  0  0  0
 35 36  2  0  0  0
 35 42  1  0  0  0
 36 37  1  0  0  0
 36 38  1  0  0  0
 38 39  1  0  0  0
 38 40  2  0  0  0
 40 41  1  0  0  0
 40 72  1  0  0  0
 41 42  2  0  0  0
 41 73  1  0  0  0
 42 43  1  0  0  0
 43 44  3  0  0  0
M  END
> <chembl_id>
CHEMBL4114611

> <chembl_pref_name>
None

> <i_m_ct_stereo_status>
1

> <s_m_source_file>
sdf/actives_sanitized.sdf

> <i_m_source_file_index>
203

> <i_lp_mmshare_version>
49012

> <i_f3d_flags>
0

> <s_epik_input>
W0NIM11PQyg9TylbTkhdYyhbY0hdW2NIXTEpW2NIXWMyW05IXUMoPU8pW0NASF0oW0NIM10pW0NIMl1bQ0gyXVtDSDJdW0NAQEhdKGMoW2NIXTMpW25IXWMoPU8pW2NIXWMzYzEyKU40W0NIMl1bQ0gyXUMoPVtDSF1DND1PKWM1YyhGKWMoQ2wpW2NIXVtjSF1jNUMjTg==

> <s_epik_cmdline>
J2VwaWtfcHl0aG9uJywgJy1waHQnLCAnMC41JywgJy1waCcsICc3LjUnLCAnLW50JywgJy1tYScsICcyMDAnLCAnLWltYWUnLCAnPGluZmlsZS5tYWU+JywgJy1vbWFlJywgJzxvdXRmaWxlLm1hZT4n

> <r_lp_tautomer_probability>
1

> <r_epik_Ionization_Penalty>
  0.0000

> <r_epik_Ionization_Penalty_Charging>
  0.0000

> <r_epik_Ionization_Penalty_Neutral>
  0.0000

> <r_epik_State_Penalty>
 -0.0000

> <r_epik_Charging_Adjusted_Penalty>
2.78447303042108e-05

> <i_epik_Tot_Q>
0

> <i_epik_Tot_abs_Q>
0

> <s_epik_Chemistry_Notes>
This compound has an ester and may undergo hydrolysis at high or low pH.

> <s_lp_Force_Field>
OPLS3e

> <r_lp_Energy>
108.095734

> <b_lp_Chiralities_Consistent>
1

> <s_lp_Variant>
sdf/actives_sanitized.sdf:203-1

$$$$
sdf/actives_sanitized.sdf:204
                    3D
 Schrodinger Suite 2020-1.
 72 76  0  0  1  0            999 V2000
   -5.2799    1.6709   -0.7468 C   0  0  0  0  0  0
   -4.1452    0.9375   -1.4908 C   0  0  2  0  0  0
   -2.7680    1.6332   -1.2791 C   0  0  0  0  0  0
   -2.1423    1.4379    0.1277 C   0  0  0  0  0  0
   -0.5918    1.3486    0.1427 C   0  0  0  0  0  0
    0.0125   -0.0752   -0.0851 C   0  0  2  0  0  0
    1.4918   -0.1162    0.0345 N   0  0  0  0  0  0
    2.3042    0.9943   -0.5478 C   0  0  0  0  0  0
    3.7549    0.5790   -0.9132 C   0  0  0  0  0  0
    4.3295   -0.2699    0.2030 C   0  0  0  0  0  0
    3.5066   -1.1155    0.8496 C   0  0  0  0  0  0
    2.0777   -1.2011    0.6407 C   0  0  0  0  0  0
    1.4641   -2.2084    0.9979 O   0  0  0  0  0  0
    5.7954   -0.4259    0.3345 C   0  0  0  0  0  0
    6.4307   -1.3445   -0.5194 C   0  0  0  0  0  0
    5.7048   -2.0457   -1.4250 F   0  0  0  0  0  0
    7.8089   -1.5519   -0.4467 C   0  0  0  0  0  0
    8.5850   -2.6823   -1.4984 Cl  0  0  0  0  0  0
    8.5675   -0.8497    0.4830 C   0  0  0  0  0  0
    7.9546    0.0638    1.3344 C   0  0  0  0  0  0
    6.5748    0.3095    1.2632 C   0  0  0  0  0  0
    6.0060    1.2728    2.2651 C   0  0  0  0  0  0
    6.4585    1.4161    3.4014 O   0  0  0  0  0  0
    4.9863    2.2977    1.7707 C   0  0  0  0  0  0
   -0.5145   -0.7294   -1.3658 C   0  0  0  0  0  0
   -1.7105   -1.4485   -1.3230 C   0  0  0  0  0  0
   -2.3326   -1.8098   -2.5207 C   0  0  0  0  0  0
   -1.6642   -1.5566   -3.7248 C   0  0  0  0  0  0
   -0.4209   -0.9214   -3.6842 C   0  0  0  0  0  0
    0.1495   -0.4897   -2.5304 N   0  0  0  0  0  0
   -3.7096   -2.3620   -2.4868 C   0  0  0  0  0  0
   -3.9214   -3.6158   -1.9062 C   0  0  0  0  0  0
   -5.1986   -4.1667   -1.8304 C   0  0  0  0  0  0
   -6.3108   -3.4778   -2.3316 C   0  0  0  0  0  0
   -6.1037   -2.2124   -2.9053 C   0  0  0  0  0  0
   -4.8259   -1.6477   -2.9726 C   0  0  0  0  0  0
   -4.7257   -0.3884   -3.5863 N   0  0  0  0  0  0
   -4.4680    0.8047   -3.0032 C   0  0  0  0  0  0
   -4.4891    1.8245   -3.6914 O   0  0  0  0  0  0
   -7.6887   -4.1023   -2.2408 C   0  0  0  0  0  0
   -7.8756   -5.1643   -1.6480 O   0  0  0  0  0  0
   -8.7004   -3.4564   -2.8317 N   0  0  0  0  0  0
   -6.2347    1.1579   -0.8714 H   0  0  0  0  0  0
   -5.4076    2.6928   -1.1072 H   0  0  0  0  0  0
   -5.0799    1.7223    0.3239 H   0  0  0  0  0  0
   -4.0883   -0.0578   -1.0558 H   0  0  0  0  0  0
   -2.0676    1.2759   -2.0333 H   0  0  0  0  0  0
   -2.8524    2.7010   -1.4894 H   0  0  0  0  0  0
   -2.4571    2.2734    0.7545 H   0  0  0  0  0  0
   -2.5525    0.5542    0.6176 H   0  0  0  0  0  0
   -0.1907    2.0676   -0.5721 H   0  0  0  0  0  0
   -0.2526    1.6938    1.1205 H   0  0  0  0  0  0
   -0.3889   -0.6718    0.7368 H   0  0  0  0  0  0
    1.7819    1.5064   -1.3557 H   0  0  0  0  0  0
    2.3808    1.7378    0.2461 H   0  0  0  0  0  0
    3.7145   -0.0218   -1.8230 H   0  0  0  0  0  0
    4.3759    1.4486   -1.1288 H   0  0  0  0  0  0
    3.9326   -1.8126    1.5581 H   0  0  0  0  0  0
    9.6334   -1.0133    0.5495 H   0  0  0  0  0  0
    8.5747    0.5874    2.0491 H   0  0  0  0  0  0
    5.1963    2.5780    0.7389 H   0  0  0  0  0  0
    5.0393    3.2084    2.3682 H   0  0  0  0  0  0
    3.9755    1.8970    1.8348 H   0  0  0  0  0  0
   -2.2149   -1.6084   -0.3808 H   0  0  0  0  0  0
   -2.1077   -1.8278   -4.6718 H   0  0  0  0  0  0
    0.1202   -0.7124   -4.5952 H   0  0  0  0  0  0
   -3.0856   -4.1756   -1.5110 H   0  0  0  0  0  0
   -5.3098   -5.1418   -1.3771 H   0  0  0  0  0  0
   -6.9375   -1.6478   -3.2992 H   0  0  0  0  0  0
   -4.9889   -0.3647   -4.5606 H   0  0  0  0  0  0
   -8.5380   -2.5877   -3.3188 H   0  0  0  0  0  0
   -9.6338   -3.8390   -2.7942 H   0  0  0  0  0  0
  1  2  1  0  0  0
  1 43  1  0  0  0
  1 44  1  0  0  0
  1 45  1  0  0  0
  2  3  1  0  0  0
  2 38  1  0  0  0
  2 46  1  0  0  0
  3  4  1  0  0  0
  3 47  1  0  0  0
  3 48  1  0  0  0
  4  5  1  0  0  0
  4 49  1  0  0  0
  4 50  1  0  0  0
  5  6  1  0  0  0
  5 51  1  0  0  0
  5 52  1  0  0  0
  6  7  1  0  0  0
  6 25  1  0  0  0
  6 53  1  0  0  0
  7  8  1  0  0  0
  7 12  1  0  0  0
  8  9  1  0  0  0
  8 54  1  0  0  0
  8 55  1  0  0  0
  9 10  1  0  0  0
  9 56  1  0  0  0
  9 57  1  0  0  0
 10 11  2  0  0  0
 10 14  1  0  0  0
 11 12  1  0  0  0
 11 58  1  0  0  0
 12 13  2  0  0  0
 14 15  2  0  0  0
 14 21  1  0  0  0
 15 16  1  0  0  0
 15 17  1  0  0  0
 17 18  1  0  0  0
 17 19  2  0  0  0
 19 20  1  0  0  0
 19 59  1  0  0  0
 20 21  2  0  0  0
 20 60  1  0  0  0
 21 22  1  0  0  0
 22 23  2  0  0  0
 22 24  1  0  0  0
 24 61  1  0  0  0
 24 62  1  0  0  0
 24 63  1  0  0  0
 25 26  1  0  0  0
 25 30  2  0  0  0
 26 27  2  0  0  0
 26 64  1  0  0  0
 27 28  1  0  0  0
 27 31  1  0  0  0
 28 29  2  0  0  0
 28 65  1  0  0  0
 29 30  1  0  0  0
 29 66  1  0  0  0
 31 32  2  0  0  0
 31 36  1  0  0  0
 32 33  1  0  0  0
 32 67  1  0  0  0
 33 34  2  0  0  0
 33 68  1  0  0  0
 34 35  1  0  0  0
 34 40  1  0  0  0
 35 36  2  0  0  0
 35 69  1  0  0  0
 36 37  1  0  0  0
 37 38  1  0  0  0
 37 70  1  0  0  0
 38 39  2  0  0  0
 40 41  2  0  0  0
 40 42  1  0  0  0
 42 71  1  0  0  0
 42 72  1  0  0  0
M  END
> <chembl_id>
CHEMBL3964855

> <chembl_pref_name>
None

> <i_m_ct_stereo_status>
1

> <s_m_source_file>
sdf/actives_sanitized.sdf

> <i_m_source_file_index>
204

> <i_lp_mmshare_version>
49012

> <i_f3d_flags>
0

> <s_epik_input>
bjFbY0hdW2NIXWMoW2NIXWMxMiljM2MoW2NIXWMoW2NIXVtjSF0zKUMoPU8pW05IMl0pW05IXUMoPU8pW0NASF0oW0NIM10pW0NIMl1bQ0gyXVtDSDJdW0NAQEhdMk40W0NIMl1bQ0gyXUMoPVtDSF1DND1PKWM1YyhGKWMoQ2wpW2NIXVtjSF1jNUMoPU8pW0NIM10=

> <s_epik_cmdline>
J2VwaWtfcHl0aG9uJywgJy1waHQnLCAnMC41JywgJy1waCcsICc3LjUnLCAnLW50JywgJy1tYScsICcyMDAnLCAnLWltYWUnLCAnPGluZmlsZS5tYWU+JywgJy1vbWFlJywgJzxvdXRmaWxlLm1hZT4n

> <r_lp_tautomer_probability>
1

> <r_epik_Ionization_Penalty>
  0.0001

> <r_epik_Ionization_Penalty_Charging>
  0.0000

> <r_epik_Ionization_Penalty_Neutral>
  0.0001

> <r_epik_State_Penalty>
 -0.0000

> <r_epik_Charging_Adjusted_Penalty>
0

> <i_epik_Tot_Q>
0

> <i_epik_Tot_abs_Q>
0

> <s_lp_Force_Field>
OPLS3e

> <r_lp_Energy>
97.13003

> <b_lp_Chiralities_Consistent>
1

> <s_lp_Variant>
sdf/actives_sanitized.sdf:204-1

$$$$
sdf/actives_sanitized.sdf:205
                    3D
 Schrodinger Suite 2020-1.
 71 75  0  0  1  0            999 V2000
   -9.2742   -2.9274   -4.7775 C   0  0  0  0  0  0
   -8.2139   -2.0408   -4.4491 O   0  0  0  0  0  0
   -6.9668   -2.5095   -4.1879 C   0  0  0  0  0  0
   -6.6703   -3.7077   -4.2150 O   0  0  0  0  0  0
   -5.9829   -1.4242   -3.8591 C   0  0  0  0  0  0
   -6.3454   -0.0689   -3.8414 C   0  0  0  0  0  0
   -5.4074    0.9147   -3.5403 C   0  0  0  0  0  0
   -4.0899    0.5657   -3.2340 C   0  0  0  0  0  0
   -3.1535    1.6005   -3.0580 N   0  0  0  0  0  0
   -2.9801    2.3964   -1.9772 C   0  0  0  0  0  0
   -2.1816    3.3301   -2.0434 O   0  0  0  0  0  0
   -3.7553    2.1670   -0.6510 C   0  0  2  0  0  0
   -4.9598    3.1323   -0.5937 C   0  0  0  0  0  0
   -2.8750    2.3289    0.6379 C   0  0  0  0  0  0
   -1.9048    1.1762    1.0226 C   0  0  0  0  0  0
   -0.5570    1.1236    0.2521 C   0  0  0  0  0  0
    0.0486   -0.3061    0.0328 C   0  0  2  0  0  0
    1.5299   -0.2551    0.0639 N   0  0  0  0  0  0
    2.2217    0.6650   -0.8859 C   0  0  0  0  0  0
    3.6725    0.2154   -1.2040 C   0  0  0  0  0  0
    4.3693   -0.1423    0.0950 C   0  0  0  0  0  0
    3.6462   -0.7297    1.0683 C   0  0  0  0  0  0
    2.2193   -0.9665    1.0147 C   0  0  0  0  0  0
    1.7026   -1.7878    1.7738 O   0  0  0  0  0  0
    5.8513   -0.1349    0.1615 C   0  0  0  0  0  0
    6.5462   -1.3542    0.0754 C   0  0  0  0  0  0
    5.8637   -2.5195   -0.0440 F   0  0  0  0  0  0
    7.9426   -1.3823    0.1046 C   0  0  0  0  0  0
    8.7928   -2.8835    0.0050 Cl  0  0  0  0  0  0
    8.6609   -0.1944    0.2103 C   0  0  0  0  0  0
    7.9890    1.0227    0.2828 C   0  0  0  0  0  0
    6.5912    1.0656    0.2548 C   0  0  0  0  0  0
    5.9483    2.3760    0.3398 C   0  0  0  0  0  0
    5.4383    3.4126    0.4065 N   0  0  0  0  0  0
   -0.4989   -1.0164   -1.2298 C   0  0  0  0  0  0
    0.2761   -1.8727   -2.0280 C   0  0  0  0  0  0
   -0.2443   -2.4072   -3.2104 C   0  0  0  0  0  0
   -1.5372   -2.0770   -3.6250 C   0  0  0  0  0  0
   -2.3269   -1.2253   -2.8468 C   0  0  0  0  0  0
   -1.8030   -0.7585   -1.6469 C   0  0  0  0  0  0
   -3.6995   -0.7933   -3.2355 C   0  0  0  0  0  0
   -4.6562   -1.7643   -3.5563 C   0  0  0  0  0  0
  -10.1915   -2.3618   -4.9402 H   0  0  0  0  0  0
   -9.4532   -3.6399   -3.9710 H   0  0  0  0  0  0
   -9.0515   -3.4833   -5.6894 H   0  0  0  0  0  0
   -7.3527    0.2457   -4.0737 H   0  0  0  0  0  0
   -5.7061    1.9526   -3.5695 H   0  0  0  0  0  0
   -2.5318    1.7527   -3.8386 H   0  0  0  0  0  0
   -4.1717    1.1596   -0.6417 H   0  0  0  0  0  0
   -5.6181    3.0147   -1.4549 H   0  0  0  0  0  0
   -4.6409    4.1757   -0.5680 H   0  0  0  0  0  0
   -5.5677    2.9528    0.2937 H   0  0  0  0  0  0
   -2.3320    3.2757    0.6175 H   0  0  0  0  0  0
   -3.5566    2.4286    1.4843 H   0  0  0  0  0  0
   -1.6613    1.2824    2.0809 H   0  0  0  0  0  0
   -2.4362    0.2259    0.9850 H   0  0  0  0  0  0
   -0.6394    1.6195   -0.7132 H   0  0  0  0  0  0
    0.1463    1.7455    0.8089 H   0  0  0  0  0  0
   -0.3098   -0.9228    0.8584 H   0  0  0  0  0  0
    1.6116    0.8978   -1.7594 H   0  0  0  0  0  0
    2.3239    1.6092   -0.3486 H   0  0  0  0  0  0
    3.6301   -0.6696   -1.8407 H   0  0  0  0  0  0
    4.2101    0.9872   -1.7556 H   0  0  0  0  0  0
    4.1595   -1.0863    1.9506 H   0  0  0  0  0  0
    9.7409   -0.2123    0.2326 H   0  0  0  0  0  0
    8.5701    1.9316    0.3614 H   0  0  0  0  0  0
    1.2890   -2.1216   -1.7483 H   0  0  0  0  0  0
    0.3640   -3.0618   -3.8170 H   0  0  0  0  0  0
   -1.9177   -2.4737   -4.5550 H   0  0  0  0  0  0
   -2.4461   -0.1473   -1.0517 H   0  0  0  0  0  0
   -4.3556   -2.8034   -3.5483 H   0  0  0  0  0  0
  1  2  1  0  0  0
  1 43  1  0  0  0
  1 44  1  0  0  0
  1 45  1  0  0  0
  2  3  1  0  0  0
  3  4  2  0  0  0
  3  5  1  0  0  0
  5  6  2  0  0  0
  5 42  1  0  0  0
  6  7  1  0  0  0
  6 46  1  0  0  0
  7  8  2  0  0  0
  7 47  1  0  0  0
  8  9  1  0  0  0
  8 41  1  0  0  0
  9 10  1  0  0  0
  9 48  1  0  0  0
 10 11  2  0  0  0
 10 12  1  0  0  0
 12 13  1  0  0  0
 12 14  1  0  0  0
 12 49  1  0  0  0
 13 50  1  0  0  0
 13 51  1  0  0  0
 13 52  1  0  0  0
 14 15  1  0  0  0
 14 53  1  0  0  0
 14 54  1  0  0  0
 15 16  1  0  0  0
 15 55  1  0  0  0
 15 56  1  0  0  0
 16 17  1  0  0  0
 16 57  1  0  0  0
 16 58  1  0  0  0
 17 18  1  0  0  0
 17 35  1  0  0  0
 17 59  1  0  0  0
 18 19  1  0  0  0
 18 23  1  0  0  0
 19 20  1  0  0  0
 19 60  1  0  0  0
 19 61  1  0  0  0
 20 21  1  0  0  0
 20 62  1  0  0  0
 20 63  1  0  0  0
 21 22  2  0  0  0
 21 25  1  0  0  0
 22 23  1  0  0  0
 22 64  1  0  0  0
 23 24  2  0  0  0
 25 26  2  0  0  0
 25 32  1  0  0  0
 26 27  1  0  0  0
 26 28  1  0  0  0
 28 29  1  0  0  0
 28 30  2  0  0  0
 30 31  1  0  0  0
 30 65  1  0  0  0
 31 32  2  0  0  0
 31 66  1  0  0  0
 32 33  1  0  0  0
 33 34  3  0  0  0
 35 36  1  0  0  0
 35 40  2  0  0  0
 36 37  2  0  0  0
 36 67  1  0  0  0
 37 38  1  0  0  0
 37 68  1  0  0  0
 38 39  2  0  0  0
 38 69  1  0  0  0
 39 40  1  0  0  0
 39 41  1  0  0  0
 40 70  1  0  0  0
 41 42  2  0  0  0
 42 71  1  0  0  0
M  END
> <chembl_id>
CHEMBL4112216

> <chembl_pref_name>
None

> <i_m_ct_stereo_status>
1

> <s_m_source_file>
sdf/actives_sanitized.sdf

> <i_m_source_file_index>
205

> <i_lp_mmshare_version>
49012

> <i_f3d_flags>
0

> <s_epik_input>
W0NIM11PQyg9TyljKFtjSF1bY0hdMSlbY0hdYyhjMTIpYzNbY0hdW2NIXVtjSF1jKFtjSF0zKVtDQEhdKFtDSDJdW0NIMl1bQ0gyXVtDQEBIXShbQ0gzXSlDKD1PKVtOSF0yKU40W0NIMl1bQ0gyXUMoPVtDSF1DND1PKWM1YyhGKWMoQ2wpW2NIXVtjSF1jNUMjTg==

> <s_epik_cmdline>
J2VwaWtfcHl0aG9uJywgJy1waHQnLCAnMC41JywgJy1waCcsICc3LjUnLCAnLW50JywgJy1tYScsICcyMDAnLCAnLWltYWUnLCAnPGluZmlsZS5tYWU+JywgJy1vbWFlJywgJzxvdXRmaWxlLm1hZT4n

> <r_lp_tautomer_probability>
1

> <r_epik_Ionization_Penalty>
  0.0000

> <r_epik_Ionization_Penalty_Charging>
  0.0000

> <r_epik_Ionization_Penalty_Neutral>
  0.0000

> <r_epik_State_Penalty>
 -0.0000

> <r_epik_Charging_Adjusted_Penalty>
0

> <i_epik_Tot_Q>
0

> <i_epik_Tot_abs_Q>
0

> <s_epik_Chemistry_Notes>
This compound has an ester and may undergo hydrolysis at high or low pH.

> <s_lp_Force_Field>
OPLS3e

> <r_lp_Energy>
91.535017

> <b_lp_Chiralities_Consistent>
1

> <s_lp_Variant>
sdf/actives_sanitized.sdf:205-1

$$$$
sdf/actives_sanitized.sdf:206
                    3D
 Schrodinger Suite 2020-1.
 72 76  0  0  1  0            999 V2000
   -3.4559    0.3476    0.2480 C   0  0  0  0  0  0
   -2.1725   -0.1460   -0.1114 O   0  0  0  0  0  0
   -1.0537    0.5311    0.2169 C   0  0  0  0  0  0
   -1.0437    1.5962    0.8377 O   0  0  0  0  0  0
    0.0422   -0.1797   -0.2631 N   0  0  0  0  0  0
    1.4134    0.1161   -0.1758 C   0  0  0  0  0  0
    2.2827   -0.8119   -0.7507 C   0  0  0  0  0  0
    3.6593   -0.6041   -0.7215 C   0  0  0  0  0  0
    4.1981    0.5370   -0.1176 C   0  0  0  0  0  0
    3.3288    1.4708    0.4845 C   0  0  0  0  0  0
    3.7455    2.6819    1.0605 N   0  0  0  0  0  0
    4.4866    2.9121    2.1683 C   0  0  0  0  0  0
    4.6281    4.0771    2.5399 O   0  0  0  0  0  0
    5.1654    1.7886    3.0014 C   0  0  2  0  0  0
    4.4183    1.5874    4.3363 C   0  0  0  0  0  0
    6.6728    2.1394    3.2183 C   0  0  0  0  0  0
    7.5991    1.0984    3.8945 C   0  0  0  0  0  0
    7.8796   -0.2643    3.1912 C   0  0  0  0  0  0
    8.5440   -0.3018    1.7694 C   0  0  2  0  0  0
    9.9586    0.1730    1.6534 N   0  0  0  0  0  0
   10.7803    0.3926    2.8828 C   0  0  0  0  0  0
   11.9775    1.3454    2.6432 C   0  0  0  0  0  0
   12.7299    0.8844    1.4117 C   0  0  0  0  0  0
   12.0346    0.2982    0.4185 C   0  0  0  0  0  0
   10.6255   -0.0387    0.4613 C   0  0  0  0  0  0
   10.0892   -0.4406   -0.5728 O   0  0  0  0  0  0
   14.1118    1.3524    1.1868 C   0  0  0  0  0  0
   15.1285    0.9069    2.0393 C   0  0  0  0  0  0
   16.4400    1.3505    1.8747 C   0  0  0  0  0  0
   16.7477    2.2531    0.8589 C   0  0  0  0  0  0
   15.7436    2.7174    0.0095 C   0  0  0  0  0  0
   16.1405    3.8448   -1.2385 Cl  0  0  0  0  0  0
   14.4270    2.2741    0.1743 C   0  0  0  0  0  0
   13.4563    2.7450   -0.6458 F   0  0  0  0  0  0
    7.5619    0.2634    0.7402 C   0  0  0  0  0  0
    6.3740   -0.2501    0.5641 N   0  0  0  0  0  0
    5.6790    0.6677   -0.0842 C   0  0  0  0  0  0
    6.4995    1.6930   -0.5563 C   0  0  0  0  0  0
    6.2437    2.9459   -1.3588 C   0  0  0  0  0  0
    7.7208    1.4056   -0.0042 N   0  0  0  0  0  0
    1.9462    1.2620    0.4351 C   0  0  0  0  0  0
   -4.2270   -0.3391   -0.1007 H   0  0  0  0  0  0
   -3.6407    1.3234   -0.2036 H   0  0  0  0  0  0
   -3.5506    0.4429    1.3306 H   0  0  0  0  0  0
   -0.1742   -1.0392   -0.7460 H   0  0  0  0  0  0
    1.8982   -1.7033   -1.2259 H   0  0  0  0  0  0
    4.3105   -1.3398   -1.1717 H   0  0  0  0  0  0
    3.3053    3.4978    0.6608 H   0  0  0  0  0  0
    5.0853    0.8444    2.4759 H   0  0  0  0  0  0
    3.3616    1.3697    4.1724 H   0  0  0  0  0  0
    4.4754    2.4722    4.9722 H   0  0  0  0  0  0
    4.8297    0.7483    4.8977 H   0  0  0  0  0  0
    7.1306    2.4475    2.2814 H   0  0  0  0  0  0
    6.7218    3.0402    3.8337 H   0  0  0  0  0  0
    8.5399    1.6089    4.0878 H   0  0  0  0  0  0
    7.2030    0.8846    4.8876 H   0  0  0  0  0  0
    8.4887   -0.8685    3.8645 H   0  0  0  0  0  0
    6.9355   -0.8093    3.1476 H   0  0  0  0  0  0
    8.6185   -1.3694    1.5515 H   0  0  0  0  0  0
   10.2374    0.5337    3.8111 H   0  0  0  0  0  0
   11.2635   -0.5731    3.0455 H   0  0  0  0  0  0
   11.6006    2.3564    2.4820 H   0  0  0  0  0  0
   12.6308    1.3874    3.5153 H   0  0  0  0  0  0
   12.5529    0.0675   -0.5023 H   0  0  0  0  0  0
   14.9049    0.2094    2.8339 H   0  0  0  0  0  0
   17.2171    0.9962    2.5357 H   0  0  0  0  0  0
   17.7651    2.5947    0.7353 H   0  0  0  0  0  0
    5.2320    2.9667   -1.7642 H   0  0  0  0  0  0
    6.9289    3.0309   -2.2024 H   0  0  0  0  0  0
    6.3648    3.8427   -0.7506 H   0  0  0  0  0  0
    8.5456    1.9872   -0.0399 H   0  0  0  0  0  0
    1.3037    2.0059    0.8793 H   0  0  0  0  0  0
  1  2  1  0  0  0
  1 42  1  0  0  0
  1 43  1  0  0  0
  1 44  1  0  0  0
  2  3  1  0  0  0
  3  4  2  0  0  0
  3  5  1  0  0  0
  5  6  1  0  0  0
  5 45  1  0  0  0
  6  7  2  0  0  0
  6 41  1  0  0  0
  7  8  1  0  0  0
  7 46  1  0  0  0
  8  9  2  0  0  0
  8 47  1  0  0  0
  9 10  1  0  0  0
  9 37  1  0  0  0
 10 11  1  0  0  0
 10 41  2  0  0  0
 11 12  1  0  0  0
 11 48  1  0  0  0
 12 13  2  0  0  0
 12 14  1  0  0  0
 14 15  1  0  0  0
 14 16  1  0  0  0
 14 49  1  0  0  0
 15 50  1  0  0  0
 15 51  1  0  0  0
 15 52  1  0  0  0
 16 17  1  0  0  0
 16 53  1  0  0  0
 16 54  1  0  0  0
 17 18  1  0  0  0
 17 55  1  0  0  0
 17 56  1  0  0  0
 18 19  1  0  0  0
 18 57  1  0  0  0
 18 58  1  0  0  0
 19 20  1  0  0  0
 19 35  1  0  0  0
 19 59  1  0  0  0
 20 21  1  0  0  0
 20 25  1  0  0  0
 21 22  1  0  0  0
 21 60  1  0  0  0
 21 61  1  0  0  0
 22 23  1  0  0  0
 22 62  1  0  0  0
 22 63  1  0  0  0
 23 24  2  0  0  0
 23 27  1  0  0  0
 24 25  1  0  0  0
 24 64  1  0  0  0
 25 26  2  0  0  0
 27 28  2  0  0  0
 27 33  1  0  0  0
 28 29  1  0  0  0
 28 65  1  0  0  0
 29 30  2  0  0  0
 29 66  1  0  0  0
 30 31  1  0  0  0
 30 67  1  0  0  0
 31 32  1  0  0  0
 31 33  2  0  0  0
 33 34  1  0  0  0
 35 36  2  0  0  0
 35 40  1  0  0  0
 36 37  1  0  0  0
 37 38  2  0  0  0
 38 39  1  0  0  0
 38 40  1  0  0  0
 39 68  1  0  0  0
 39 69  1  0  0  0
 39 70  1  0  0  0
 40 71  1  0  0  0
 41 72  1  0  0  0
M  END
> <chembl_id>
CHEMBL4109928

> <chembl_pref_name>
None

> <i_m_ct_stereo_status>
1

> <s_m_source_file>
sdf/actives_sanitized.sdf

> <i_m_source_file_index>
206

> <i_lp_mmshare_version>
49012

> <i_f3d_flags>
0

> <s_epik_input>
W0NIM11PQyg9TylbTkhdYyhbY0hdW2NIXTEpW2NIXWMoYzEyKVtOSF1DKD1PKVtDQEhdKFtDSDNdKVtDSDJdW0NIMl1bQ0gyXVtDQEBIXShjM25jMmMoW0NIM10pW25IXTMpTjRbQ0gyXVtDSDJdQyg9W0NIXUM0PU8pYzVbY0hdW2NIXVtjSF1jKENsKWM1Rg==

> <s_epik_cmdline>
J2VwaWtfcHl0aG9uJywgJy1waHQnLCAnMC41JywgJy1waCcsICc3LjUnLCAnLW50JywgJy1tYScsICcyMDAnLCAnLWltYWUnLCAnPGluZmlsZS5tYWU+JywgJy1vbWFlJywgJzxvdXRmaWxlLm1hZT4n

> <r_lp_tautomer_probability>
0.499999999999999

> <r_epik_Ionization_Penalty>
  0.3264

> <r_epik_Ionization_Penalty_Charging>
  0.3264

> <r_epik_Ionization_Penalty_Neutral>
  0.0000

> <r_epik_State_Penalty>
  0.5924

> <r_epik_Charging_Adjusted_Penalty>
0.918814585013762

> <i_epik_Tot_Q>
0

> <i_epik_Tot_abs_Q>
0

> <s_epik_Chemistry_Notes>
This compound has an ester and may undergo hydrolysis at high or low pH.

> <s_lp_Force_Field>
OPLS3e

> <r_lp_Energy>
90.952078

> <b_lp_Chiralities_Consistent>
1

> <s_lp_Variant>
sdf/actives_sanitized.sdf:206-1

$$$$
sdf/actives_sanitized.sdf:206
                    3D
 Schrodinger Suite 2020-1.
 73 77  0  0  1  0            999 V2000
   -3.3735    1.2052    0.4859 C   0  0  0  0  0  0
   -2.1978    0.4089    0.5435 O   0  0  0  0  0  0
   -0.9845    0.9492    0.3116 C   0  0  0  0  0  0
   -0.7911    2.1374    0.0450 O   0  0  0  0  0  0
   -0.0270   -0.0525    0.4399 N   0  0  0  0  0  0
    1.3653    0.0234    0.2695 C   0  0  0  0  0  0
    2.1076   -1.0780    0.6995 C   0  0  0  0  0  0
    3.4946   -1.0943    0.5652 C   0  0  0  0  0  0
    4.1694   -0.0094   -0.0015 C   0  0  0  0  0  0
    3.4242    1.1022   -0.4533 C   0  0  0  0  0  0
    3.9997    2.1575   -1.1790 N   0  0  0  0  0  0
    4.4933    3.3275   -0.7145 C   0  0  0  0  0  0
    4.8181    4.1973   -1.5216 O   0  0  0  0  0  0
    4.6655    3.6126    0.8042 C   0  0  2  0  0  0
    3.3981    4.3045    1.3478 C   0  0  0  0  0  0
    5.9376    4.4688    1.1369 C   0  0  0  0  0  0
    7.3187    3.9916    0.5950 C   0  0  0  0  0  0
    8.1224    3.0257    1.5118 C   0  0  0  0  0  0
    8.7819    1.7927    0.8078 C   0  0  2  0  0  0
    9.7083    2.1775   -0.2870 N   0  0  0  0  0  0
    9.2481    2.1516   -1.7105 C   0  0  0  0  0  0
   10.0156    3.1503   -2.6175 C   0  0  0  0  0  0
   11.4997    3.0271   -2.3340 C   0  0  0  0  0  0
   11.8911    2.7693   -1.0719 C   0  0  0  0  0  0
   10.9950    2.5333    0.0396 C   0  0  0  0  0  0
   11.3992    2.6700    1.1955 O   0  0  0  0  0  0
   12.4870    3.4269   -3.3549 C   0  0  0  0  0  0
   12.4400    4.7148   -3.9020 C   0  0  0  0  0  0
   13.3520    5.1031   -4.8826 C   0  0  0  0  0  0
   14.3164    4.2037   -5.3327 C   0  0  0  0  0  0
   14.3678    2.9132   -4.8057 C   0  0  0  0  0  0
   15.5637    1.8067   -5.3815 Cl  0  0  0  0  0  0
   13.4537    2.5225   -3.8214 C   0  0  0  0  0  0
   13.5037    1.2635   -3.3221 F   0  0  0  0  0  0
    7.7264    0.7817    0.3722 C   0  0  0  0  0  0
    6.3816    0.9876    0.4491 N   0  3  0  0  0  0
    5.6573   -0.0724   -0.0362 C   0  0  0  0  0  0
    6.6063   -1.0307   -0.4206 C   0  0  0  0  0  0
    6.4681   -2.4143   -1.0096 C   0  0  0  0  0  0
    7.8610   -0.4798   -0.1640 N   0  0  0  0  0  0
    2.0315    1.1064   -0.3240 C   0  0  0  0  0  0
   -4.2484    0.5890    0.6930 H   0  0  0  0  0  0
   -3.4980    1.6499   -0.5026 H   0  0  0  0  0  0
   -3.3404    2.0070    1.2251 H   0  0  0  0  0  0
   -0.3739   -0.9545    0.7314 H   0  0  0  0  0  0
    1.6149   -1.9284    1.1495 H   0  0  0  0  0  0
    4.0449   -1.9525    0.9241 H   0  0  0  0  0  0
    3.9426    2.0617   -2.1826 H   0  0  0  0  0  0
    4.7425    2.6731    1.3467 H   0  0  0  0  0  0
    2.5061    3.6960    1.1902 H   0  0  0  0  0  0
    3.2240    5.2685    0.8666 H   0  0  0  0  0  0
    3.4766    4.4829    2.4209 H   0  0  0  0  0  0
    5.7719    5.4744    0.7447 H   0  0  0  0  0  0
    6.0114    4.6045    2.2170 H   0  0  0  0  0  0
    7.1975    3.5707   -0.3997 H   0  0  0  0  0  0
    7.9412    4.8722    0.4292 H   0  0  0  0  0  0
    8.8983    3.5995    2.0207 H   0  0  0  0  0  0
    7.4846    2.6667    2.3213 H   0  0  0  0  0  0
    9.3704    1.2885    1.5772 H   0  0  0  0  0  0
    9.5142    1.1585   -2.0756 H   0  0  0  0  0  0
    8.1644    2.2028   -1.8110 H   0  0  0  0  0  0
    9.7908    2.9758   -3.6703 H   0  0  0  0  0  0
    9.6861    4.1610   -2.3724 H   0  0  0  0  0  0
   12.9485    2.7696   -0.8459 H   0  0  0  0  0  0
   11.6962    5.4231   -3.5657 H   0  0  0  0  0  0
   13.3101    6.1007   -5.2946 H   0  0  0  0  0  0
   15.0208    4.5088   -6.0928 H   0  0  0  0  0  0
    5.4276   -2.6672   -1.2145 H   0  0  0  0  0  0
    6.8583   -3.1789   -0.3377 H   0  0  0  0  0  0
    7.0086   -2.5073   -1.9520 H   0  0  0  0  0  0
    8.7424   -0.9384   -0.3466 H   0  0  0  0  0  0
    1.4837    1.9501   -0.7149 H   0  0  0  0  0  0
    5.9647    1.8353    0.8065 H   0  0  0  0  0  0
  1  2  1  0  0  0
  1 42  1  0  0  0
  1 43  1  0  0  0
  1 44  1  0  0  0
  2  3  1  0  0  0
  3  4  2  0  0  0
  3  5  1  0  0  0
  5  6  1  0  0  0
  5 45  1  0  0  0
  6  7  2  0  0  0
  6 41  1  0  0  0
  7  8  1  0  0  0
  7 46  1  0  0  0
  8  9  2  0  0  0
  8 47  1  0  0  0
  9 10  1  0  0  0
  9 37  1  0  0  0
 10 11  1  0  0  0
 10 41  2  0  0  0
 11 12  1  0  0  0
 11 48  1  0  0  0
 12 13  2  0  0  0
 12 14  1  0  0  0
 14 15  1  0  0  0
 14 16  1  0  0  0
 14 49  1  0  0  0
 15 50  1  0  0  0
 15 51  1  0  0  0
 15 52  1  0  0  0
 16 17  1  0  0  0
 16 53  1  0  0  0
 16 54  1  0  0  0
 17 18  1  0  0  0
 17 55  1  0  0  0
 17 56  1  0  0  0
 18 19  1  0  0  0
 18 57  1  0  0  0
 18 58  1  0  0  0
 19 20  1  0  0  0
 19 35  1  0  0  0
 19 59  1  0  0  0
 20 21  1  0  0  0
 20 25  1  0  0  0
 21 22  1  0  0  0
 21 60  1  0  0  0
 21 61  1  0  0  0
 22 23  1  0  0  0
 22 62  1  0  0  0
 22 63  1  0  0  0
 23 24  2  0  0  0
 23 27  1  0  0  0
 24 25  1  0  0  0
 24 64  1  0  0  0
 25 26  2  0  0  0
 27 28  2  0  0  0
 27 33  1  0  0  0
 28 29  1  0  0  0
 28 65  1  0  0  0
 29 30  2  0  0  0
 29 66  1  0  0  0
 30 31  1  0  0  0
 30 67  1  0  0  0
 31 32  1  0  0  0
 31 33  2  0  0  0
 33 34  1  0  0  0
 35 36  2  0  0  0
 35 40  1  0  0  0
 36 37  1  0  0  0
 36 73  1  0  0  0
 37 38  2  0  0  0
 38 39  1  0  0  0
 38 40  1  0  0  0
 39 68  1  0  0  0
 39 69  1  0  0  0
 39 70  1  0  0  0
 40 71  1  0  0  0
 41 72  1  0  0  0
M  CHG  1  36   1
M  END
> <chembl_id>
CHEMBL4109928

> <chembl_pref_name>
None

> <i_m_ct_stereo_status>
1

> <s_m_source_file>
sdf/actives_sanitized.sdf

> <i_m_source_file_index>
206

> <i_lp_mmshare_version>
49012

> <i_f3d_flags>
0

> <s_epik_input>
W0NIM11PQyg9TylbTkhdYyhbY0hdW2NIXTEpW2NIXWMoYzEyKVtOSF1DKD1PKVtDQEhdKFtDSDNdKVtDSDJdW0NIMl1bQ0gyXVtDQEBIXShjM25jMmMoW0NIM10pW25IXTMpTjRbQ0gyXVtDSDJdQyg9W0NIXUM0PU8pYzVbY0hdW2NIXVtjSF1jKENsKWM1Rg==

> <s_epik_cmdline>
J2VwaWtfcHl0aG9uJywgJy1waHQnLCAnMC41JywgJy1waCcsICc3LjUnLCAnLW50JywgJy1tYScsICcyMDAnLCAnLWltYWUnLCAnPGluZmlsZS5tYWU+JywgJy1vbWFlJywgJzxvdXRmaWxlLm1hZT4n

> <r_lp_tautomer_probability>
1

> <r_epik_Ionization_Penalty>
  0.7689

> <r_epik_Ionization_Penalty_Charging>
  0.0000

> <r_epik_Ionization_Penalty_Neutral>
  0.7689

> <r_epik_State_Penalty>
  0.5965

> <r_epik_Charging_Adjusted_Penalty>
0.596520724778134

> <i_epik_Tot_Q>
1

> <i_epik_Tot_abs_Q>
1

> <s_epik_Chemistry_Notes>
This compound has an ester and may undergo hydrolysis at high or low pH.

> <s_lp_Force_Field>
OPLS3e

> <r_lp_Energy>
85.58217

> <b_lp_Chiralities_Consistent>
1

> <s_lp_Variant>
sdf/actives_sanitized.sdf:206-2

$$$$
sdf/actives_sanitized.sdf:207
                    3D
 Schrodinger Suite 2020-1.
 72 76  0  0  1  0            999 V2000
   -4.2705   -7.2065    0.4685 C   0  0  0  0  0  0
   -4.2433   -5.9974   -0.2771 O   0  0  0  0  0  0
   -5.3764   -5.4893   -0.8263 C   0  0  0  0  0  0
   -6.4835   -6.0258   -0.7220 O   0  0  0  0  0  0
   -5.1509   -4.2053   -1.5704 C   0  0  0  0  0  0
   -6.2369   -3.5583   -2.1739 C   0  0  0  0  0  0
   -6.0603   -2.3610   -2.8624 C   0  0  0  0  0  0
   -4.7954   -1.7779   -2.9562 C   0  0  0  0  0  0
   -4.7074   -0.5777   -3.6796 N   0  0  0  0  0  0
   -4.4825    0.6683   -3.2030 C   0  0  0  0  0  0
   -4.5119    1.6212   -3.9810 O   0  0  0  0  0  0
   -4.1855    0.9447   -1.7044 C   0  0  2  0  0  0
   -5.3437    1.7205   -1.0450 C   0  0  0  0  0  0
   -2.8253    1.6850   -1.5410 C   0  0  0  0  0  0
   -2.2174    1.6422   -0.1134 C   0  0  0  0  0  0
   -0.6655    1.5749   -0.0737 C   0  0  0  0  0  0
   -0.0517    0.1388   -0.1213 C   0  0  2  0  0  0
    1.4221    0.0944    0.0739 N   0  0  0  0  0  0
    2.2971    1.1411   -0.5379 C   0  0  0  0  0  0
    3.6731    1.2479    0.1723 C   0  0  0  0  0  0
    4.2525   -0.1471    0.3055 C   0  0  0  0  0  0
    3.4091   -1.1733    0.5259 C   0  0  0  0  0  0
    1.9673   -1.0599    0.5897 C   0  0  0  0  0  0
    1.3079   -1.9568    1.1191 O   0  0  0  0  0  0
    5.7151   -0.3513    0.3965 C   0  0  0  0  0  0
    6.3632   -0.9275   -0.7093 C   0  0  0  0  0  0
    5.6469   -1.3020   -1.7981 F   0  0  0  0  0  0
    7.7458   -1.1181   -0.7057 C   0  0  0  0  0  0
    8.5394   -1.8314   -2.0649 Cl  0  0  0  0  0  0
    8.4958   -0.7306    0.3994 C   0  0  0  0  0  0
    7.8679   -0.1538    1.4990 C   0  0  0  0  0  0
    6.4808    0.0556    1.5153 C   0  0  0  0  0  0
    5.8437    0.6448    2.7854 C   0  0  0  0  0  0
    6.6436    0.5299    3.8479 F   0  0  0  0  0  0
    5.5960    1.9398    2.5920 F   0  0  0  0  0  0
    4.7018    0.0316    3.0985 F   0  0  0  0  0  0
   -0.5372   -0.6397   -1.3481 C   0  0  0  0  0  0
   -1.7205   -1.3752   -1.2654 C   0  0  0  0  0  0
   -2.3114   -1.8492   -2.4390 C   0  0  0  0  0  0
   -1.6233   -1.6872   -3.6478 C   0  0  0  0  0  0
   -0.3934   -1.0251   -3.6386 C   0  0  0  0  0  0
    0.1453   -0.4849   -2.5156 N   0  0  0  0  0  0
   -3.6788   -2.4228   -2.3818 C   0  0  0  0  0  0
   -3.8788   -3.6215   -1.6860 C   0  0  0  0  0  0
   -3.2660   -7.4515    0.8134 H   0  0  0  0  0  0
   -4.6312   -8.0356   -0.1418 H   0  0  0  0  0  0
   -4.9164   -7.1125    1.3427 H   0  0  0  0  0  0
   -7.2333   -3.9737   -2.1149 H   0  0  0  0  0  0
   -6.9180   -1.8838   -3.3154 H   0  0  0  0  0  0
   -4.9573   -0.6468   -4.6553 H   0  0  0  0  0  0
   -4.1169   -0.0052   -1.1791 H   0  0  0  0  0  0
   -6.2894    1.1853   -1.1437 H   0  0  0  0  0  0
   -5.4771    2.7074   -1.4908 H   0  0  0  0  0  0
   -5.1652    1.8616    0.0214 H   0  0  0  0  0  0
   -2.1069    1.2687   -2.2465 H   0  0  0  0  0  0
   -2.9254    2.7251   -1.8569 H   0  0  0  0  0  0
   -2.5502    2.5330    0.4213 H   0  0  0  0  0  0
   -2.6241    0.8069    0.4579 H   0  0  0  0  0  0
   -0.2731    2.1971   -0.8783 H   0  0  0  0  0  0
   -0.3355    2.0457    0.8535 H   0  0  0  0  0  0
   -0.4863   -0.3630    0.7458 H   0  0  0  0  0  0
    2.5322    0.7662   -1.5356 H   0  0  0  0  0  0
    1.8052    2.0967   -0.7043 H   0  0  0  0  0  0
    4.3464    1.9114   -0.3713 H   0  0  0  0  0  0
    3.5045    1.6764    1.1605 H   0  0  0  0  0  0
    3.8234   -2.1577    0.6936 H   0  0  0  0  0  0
    9.5662   -0.8772    0.4083 H   0  0  0  0  0  0
    8.4783    0.1339    2.3424 H   0  0  0  0  0  0
   -2.2428   -1.4621   -0.3232 H   0  0  0  0  0  0
   -2.0421   -2.0472   -4.5763 H   0  0  0  0  0  0
    0.1606   -0.8816   -4.5544 H   0  0  0  0  0  0
   -3.0178   -4.0948   -1.2348 H   0  0  0  0  0  0
  1  2  1  0  0  0
  1 45  1  0  0  0
  1 46  1  0  0  0
  1 47  1  0  0  0
  2  3  1  0  0  0
  3  4  2  0  0  0
  3  5  1  0  0  0
  5  6  2  0  0  0
  5 44  1  0  0  0
  6  7  1  0  0  0
  6 48  1  0  0  0
  7  8  2  0  0  0
  7 49  1  0  0  0
  8  9  1  0  0  0
  8 43  1  0  0  0
  9 10  1  0  0  0
  9 50  1  0  0  0
 10 11  2  0  0  0
 10 12  1  0  0  0
 12 13  1  0  0  0
 12 14  1  0  0  0
 12 51  1  0  0  0
 13 52  1  0  0  0
 13 53  1  0  0  0
 13 54  1  0  0  0
 14 15  1  0  0  0
 14 55  1  0  0  0
 14 56  1  0  0  0
 15 16  1  0  0  0
 15 57  1  0  0  0
 15 58  1  0  0  0
 16 17  1  0  0  0
 16 59  1  0  0  0
 16 60  1  0  0  0
 17 18  1  0  0  0
 17 37  1  0  0  0
 17 61  1  0  0  0
 18 19  1  0  0  0
 18 23  1  0  0  0
 19 20  1  0  0  0
 19 62  1  0  0  0
 19 63  1  0  0  0
 20 21  1  0  0  0
 20 64  1  0  0  0
 20 65  1  0  0  0
 21 22  2  0  0  0
 21 25  1  0  0  0
 22 23  1  0  0  0
 22 66  1  0  0  0
 23 24  2  0  0  0
 25 26  2  0  0  0
 25 32  1  0  0  0
 26 27  1  0  0  0
 26 28  1  0  0  0
 28 29  1  0  0  0
 28 30  2  0  0  0
 30 31  1  0  0  0
 30 67  1  0  0  0
 31 32  2  0  0  0
 31 68  1  0  0  0
 32 33  1  0  0  0
 33 34  1  0  0  0
 33 35  1  0  0  0
 33 36  1  0  0  0
 37 38  1  0  0  0
 37 42  2  0  0  0
 38 39  2  0  0  0
 38 69  1  0  0  0
 39 40  1  0  0  0
 39 43  1  0  0  0
 40 41  2  0  0  0
 40 70  1  0  0  0
 41 42  1  0  0  0
 41 71  1  0  0  0
 43 44  2  0  0  0
 44 72  1  0  0  0
M  END
> <chembl_id>
CHEMBL4108805

> <chembl_pref_name>
None

> <i_m_ct_stereo_status>
1

> <s_m_source_file>
sdf/actives_sanitized.sdf

> <i_m_source_file_index>
207

> <i_lp_mmshare_version>
49012

> <i_f3d_flags>
0

> <s_epik_input>
W0NIM11PQyg9TyljKFtjSF1bY0hdMSlbY0hdYyhjMTIpYzNbY0hdYyhuW2NIXVtjSF0zKVtDQEhdKFtDSDJdW0NIMl1bQ0gyXVtDQEBIXShbQ0gzXSlDKD1PKVtOSF0yKU40W0NIMl1bQ0gyXUMoPVtDSF1DND1PKWM1YyhGKWMoQ2wpW2NIXVtjSF1jNUMoRikoRilG

> <s_epik_cmdline>
J2VwaWtfcHl0aG9uJywgJy1waHQnLCAnMC41JywgJy1waCcsICc3LjUnLCAnLW50JywgJy1tYScsICcyMDAnLCAnLWltYWUnLCAnPGluZmlsZS5tYWU+JywgJy1vbWFlJywgJzxvdXRmaWxlLm1hZT4n

> <r_lp_tautomer_probability>
1

> <r_epik_Ionization_Penalty>
  0.0001

> <r_epik_Ionization_Penalty_Charging>
  0.0000

> <r_epik_Ionization_Penalty_Neutral>
  0.0001

> <r_epik_State_Penalty>
 -0.0000

> <r_epik_Charging_Adjusted_Penalty>
0

> <i_epik_Tot_Q>
0

> <i_epik_Tot_abs_Q>
0

> <s_epik_Chemistry_Notes>
This compound has an ester and may undergo hydrolysis at high or low pH.

> <s_lp_Force_Field>
OPLS3e

> <r_lp_Energy>
88.348071

> <b_lp_Chiralities_Consistent>
1

> <s_lp_Variant>
sdf/actives_sanitized.sdf:207-1

$$$$
sdf/actives_sanitized.sdf:208
                    3D
 Schrodinger Suite 2020-1.
 70 74  0  0  1  0            999 V2000
   -3.2280    0.7188    0.4551 C   0  0  0  0  0  0
   -1.9878    0.1380    0.0757 O   0  0  0  0  0  0
   -0.8249    0.7826    0.2991 C   0  0  0  0  0  0
   -0.7360    1.8889    0.8359 O   0  0  0  0  0  0
    0.2129   -0.0136   -0.1763 N   0  0  0  0  0  0
    1.5992    0.2163   -0.1627 C   0  0  0  0  0  0
    2.3965   -0.7793   -0.7317 C   0  0  0  0  0  0
    3.7834   -0.6468   -0.7618 C   0  0  0  0  0  0
    4.4056    0.4831   -0.2247 C   0  0  0  0  0  0
    3.6057    1.4884    0.3568 C   0  0  0  0  0  0
    4.1570    2.6715    0.8740 N   0  0  0  0  0  0
    4.6514    2.8712    2.1169 C   0  0  0  0  0  0
    5.0420    3.9943    2.4348 O   0  0  0  0  0  0
    4.7318    1.7227    3.1616 C   0  0  2  0  0  0
    3.6511    1.9380    4.2484 C   0  0  0  0  0  0
    6.1250    1.4402    3.8026 C   0  0  0  0  0  0
    6.2227    0.6322    4.7271 O   0  0  0  0  0  0
    7.3965    2.1352    3.2649 C   0  0  0  0  0  0
    8.6862    1.2660    3.2201 C   0  0  0  0  0  0
    8.6369   -0.0162    2.3251 C   0  0  2  0  0  0
    9.9179   -0.7752    2.2039 N   0  0  0  0  0  0
   11.1267   -0.3579    2.9799 C   0  0  0  0  0  0
   12.4468   -0.8631    2.3411 C   0  0  0  0  0  0
   12.3129   -2.3457    2.0462 C   0  0  0  0  0  0
   11.1056   -2.7967    1.6522 C   0  0  0  0  0  0
    9.8961   -2.0037    1.5767 C   0  0  0  0  0  0
    8.9338   -2.4467    0.9470 O   0  0  0  0  0  0
   13.5138   -3.2084    1.9051 C   0  0  0  0  0  0
   14.6416   -2.7724    1.1872 C   0  0  0  0  0  0
   14.6587   -1.5607    0.5841 F   0  0  0  0  0  0
   15.7648   -3.5900    1.0640 C   0  0  0  0  0  0
   15.7831   -4.8510    1.6527 C   0  0  0  0  0  0
   14.6769   -5.2991    2.3712 C   0  0  0  0  0  0
   14.7173   -6.8642    3.1031 Cl  0  0  0  0  0  0
   13.5483   -4.4836    2.4991 C   0  0  0  0  0  0
   12.4895   -4.9309    3.2177 F   0  0  0  0  0  0
    7.9420    0.2997    0.9949 C   0  0  0  0  0  0
    6.5840    0.0185    0.8554 C   0  0  0  0  0  0
    5.8838    0.5656   -0.2187 C   0  0  0  0  0  0
    6.5969    1.2641   -1.1999 C   0  0  0  0  0  0
    7.9765    1.4248   -1.0394 C   0  0  0  0  0  0
    8.6514    0.9767    0.0515 N   0  0  0  0  0  0
    2.2135    1.3574    0.3769 C   0  0  0  0  0  0
   -4.0448    0.0403    0.2086 H   0  0  0  0  0  0
   -3.3968    1.6590   -0.0719 H   0  0  0  0  0  0
   -3.2596    0.9125    1.5284 H   0  0  0  0  0  0
   -0.0664   -0.8904   -0.5913 H   0  0  0  0  0  0
    1.9473   -1.6679   -1.1523 H   0  0  0  0  0  0
    4.3795   -1.4355   -1.1984 H   0  0  0  0  0  0
    4.1174    3.4735    0.2620 H   0  0  0  0  0  0
    4.4709    0.7868    2.6707 H   0  0  0  0  0  0
    3.8468    2.8307    4.8453 H   0  0  0  0  0  0
    3.5904    1.0921    4.9349 H   0  0  0  0  0  0
    2.6587    2.0496    3.8079 H   0  0  0  0  0  0
    7.2101    2.5146    2.2618 H   0  0  0  0  0  0
    7.5732    3.0159    3.8826 H   0  0  0  0  0  0
    9.4826    1.9201    2.8642 H   0  0  0  0  0  0
    8.9576    0.9839    4.2386 H   0  0  0  0  0  0
    7.9821   -0.6998    2.8696 H   0  0  0  0  0  0
   11.1478    0.6945    3.2537 H   0  0  0  0  0  0
   11.0540   -0.8949    3.9271 H   0  0  0  0  0  0
   12.6025   -0.3139    1.4115 H   0  0  0  0  0  0
   13.2987   -0.6621    2.9915 H   0  0  0  0  0  0
   11.0167   -3.8261    1.3332 H   0  0  0  0  0  0
   16.6236   -3.2462    0.5061 H   0  0  0  0  0  0
   16.6566   -5.4785    1.5511 H   0  0  0  0  0  0
    6.0567   -0.5134    1.6336 H   0  0  0  0  0  0
    6.0908    1.6958   -2.0510 H   0  0  0  0  0  0
    8.5559    1.9635   -1.7745 H   0  0  0  0  0  0
    1.6345    2.1525    0.8193 H   0  0  0  0  0  0
  1  2  1  0  0  0
  1 44  1  0  0  0
  1 45  1  0  0  0
  1 46  1  0  0  0
  2  3  1  0  0  0
  3  4  2  0  0  0
  3  5  1  0  0  0
  5  6  1  0  0  0
  5 47  1  0  0  0
  6  7  2  0  0  0
  6 43  1  0  0  0
  7  8  1  0  0  0
  7 48  1  0  0  0
  8  9  2  0  0  0
  8 49  1  0  0  0
  9 10  1  0  0  0
  9 39  1  0  0  0
 10 11  1  0  0  0
 10 43  2  0  0  0
 11 12  1  0  0  0
 11 50  1  0  0  0
 12 13  2  0  0  0
 12 14  1  0  0  0
 14 15  1  0  0  0
 14 16  1  0  0  0
 14 51  1  0  0  0
 15 52  1  0  0  0
 15 53  1  0  0  0
 15 54  1  0  0  0
 16 17  2  0  0  0
 16 18  1  0  0  0
 18 19  1  0  0  0
 18 55  1  0  0  0
 18 56  1  0  0  0
 19 20  1  0  0  0
 19 57  1  0  0  0
 19 58  1  0  0  0
 20 21  1  0  0  0
 20 37  1  0  0  0
 20 59  1  0  0  0
 21 22  1  0  0  0
 21 26  1  0  0  0
 22 23  1  0  0  0
 22 60  1  0  0  0
 22 61  1  0  0  0
 23 24  1  0  0  0
 23 62  1  0  0  0
 23 63  1  0  0  0
 24 25  2  0  0  0
 24 28  1  0  0  0
 25 26  1  0  0  0
 25 64  1  0  0  0
 26 27  2  0  0  0
 28 29  2  0  0  0
 28 35  1  0  0  0
 29 30  1  0  0  0
 29 31  1  0  0  0
 31 32  2  0  0  0
 31 65  1  0  0  0
 32 33  1  0  0  0
 32 66  1  0  0  0
 33 34  1  0  0  0
 33 35  2  0  0  0
 35 36  1  0  0  0
 37 38  1  0  0  0
 37 42  2  0  0  0
 38 39  2  0  0  0
 38 67  1  0  0  0
 39 40  1  0  0  0
 40 41  2  0  0  0
 40 68  1  0  0  0
 41 42  1  0  0  0
 41 69  1  0  0  0
 43 70  1  0  0  0
M  END
> <chembl_id>
CHEMBL4115583

> <chembl_pref_name>
None

> <i_m_ct_stereo_status>
1

> <s_m_source_file>
sdf/actives_sanitized.sdf

> <i_m_source_file_index>
208

> <i_lp_mmshare_version>
49012

> <i_f3d_flags>
0

> <s_epik_input>
W0NIM11PQyg9TylbTkhdYyhbY0hdW2NIXTEpW2NIXWMoYzEyKVtOSF1DKD1PKVtDQEhdKFtDSDNdKUMoPU8pW0NIMl1bQ0gyXVtDQEBIXShjM1tjSF1jMltjSF1bY0hdbjMpTjRbQ0gyXVtDSDJdQyg9W0NIXUM0PU8pYzVjKEYpW2NIXVtjSF1jKENsKWM1Rg==

> <s_epik_cmdline>
J2VwaWtfcHl0aG9uJywgJy1waHQnLCAnMC41JywgJy1waCcsICc3LjUnLCAnLW50JywgJy1tYScsICcyMDAnLCAnLWltYWUnLCAnPGluZmlsZS5tYWU+JywgJy1vbWFlJywgJzxvdXRmaWxlLm1hZT4n

> <r_lp_tautomer_probability>
1

> <r_epik_Ionization_Penalty>
  0.0051

> <r_epik_Ionization_Penalty_Charging>
  0.0000

> <r_epik_Ionization_Penalty_Neutral>
  0.0051

> <r_epik_State_Penalty>
 -0.0000

> <r_epik_Charging_Adjusted_Penalty>
0

> <i_epik_Tot_Q>
0

> <i_epik_Tot_abs_Q>
0

> <s_epik_Chemistry_Notes>
This compound has an ester and may undergo hydrolysis at high or low pH.

> <s_lp_Force_Field>
OPLS3e

> <r_lp_Energy>
94.152119

> <b_lp_Chiralities_Consistent>
1

> <s_lp_Variant>
sdf/actives_sanitized.sdf:208-1

$$$$
sdf/actives_sanitized.sdf:209
                    3D
 Schrodinger Suite 2020-1.
 73 78  0  0  1  0            999 V2000
   -5.1688    1.8921   -1.1174 C   0  0  0  0  0  0
   -4.0662    1.0018   -1.7262 C   0  0  2  0  0  0
   -2.6668    1.6804   -1.6483 C   0  0  0  0  0  0
   -2.0287    1.7072   -0.2337 C   0  0  0  0  0  0
   -0.4800    1.5900   -0.2176 C   0  0  0  0  0  0
    0.0965    0.1365   -0.2117 C   0  0  2  0  0  0
    1.5770    0.0867   -0.1071 N   0  0  0  0  0  0
    2.4016    1.0765   -0.8636 C   0  0  0  0  0  0
    3.8323    0.5689   -1.1895 C   0  0  0  0  0  0
    4.4177   -0.0970    0.0405 C   0  0  0  0  0  0
    3.5877   -0.7981    0.8367 C   0  0  0  0  0  0
    2.1547   -0.8943    0.6614 C   0  0  0  0  0  0
    1.5309   -1.8206    1.1830 O   0  0  0  0  0  0
    5.8855   -0.2213    0.1781 C   0  0  0  0  0  0
    6.5201   -1.4737    0.1252 C   0  0  0  0  0  0
    5.8013   -2.6059   -0.0616 F   0  0  0  0  0  0
    7.9056   -1.5704    0.2512 C   0  0  0  0  0  0
    8.6747   -0.4230    0.4279 C   0  0  0  0  0  0
    8.0599    0.8271    0.4788 C   0  0  0  0  0  0
    9.0280    2.2415    0.6988 Cl  0  0  0  0  0  0
    6.6709    0.9292    0.3539 C   0  0  0  0  0  0
    6.0851    2.1500    0.4139 F   0  0  0  0  0  0
   -0.4648   -0.7133   -1.3557 C   0  0  0  0  0  0
   -1.6738   -1.3871   -1.1736 C   0  0  0  0  0  0
   -2.3271   -1.9284   -2.2832 C   0  0  0  0  0  0
   -1.6778   -1.8960   -3.5235 C   0  0  0  0  0  0
   -0.4212   -1.2922   -3.6101 C   0  0  0  0  0  0
    0.1813   -0.6874   -2.5541 N   0  0  0  0  0  0
   -3.7157   -2.4298   -2.1311 C   0  0  0  0  0  0
   -3.9453   -3.5533   -1.3299 C   0  0  0  0  0  0
   -5.2352   -4.0378   -1.1235 C   0  0  0  0  0  0
   -6.3335   -3.3995   -1.7091 C   0  0  0  0  0  0
   -7.6551   -3.8467   -1.5408 N   0  0  0  0  0  0
   -8.2809   -4.5602   -0.5065 C   0  0  0  0  0  0
   -9.5535   -4.9622   -0.7650 N   0  0  0  0  0  0
  -10.1999   -5.6324    0.2254 C   0  0  0  0  0  0
   -9.6046   -5.9005    1.4593 C   0  0  0  0  0  0
   -8.2974   -5.4442    1.6373 C   0  0  0  0  0  0
   -7.6237   -4.7709    0.6683 N   0  0  0  0  0  0
   -6.1147   -2.2855   -2.5218 C   0  0  0  0  0  0
   -4.8249   -1.7828   -2.7192 C   0  0  0  0  0  0
   -4.7062   -0.6569   -3.5497 N   0  0  0  0  0  0
   -4.4104    0.6132   -3.1893 C   0  0  0  0  0  0
   -4.4113    1.4954   -4.0472 O   0  0  0  0  0  0
   -6.1409    1.3973   -1.1440 H   0  0  0  0  0  0
   -5.2676    2.8381   -1.6522 H   0  0  0  0  0  0
   -4.9550    2.1247   -0.0737 H   0  0  0  0  0  0
   -4.0343    0.0980   -1.1216 H   0  0  0  0  0  0
   -1.9875    1.1786   -2.3366 H   0  0  0  0  0  0
   -2.7224    2.6990   -2.0368 H   0  0  0  0  0  0
   -2.3203    2.6410    0.2488 H   0  0  0  0  0  0
   -2.4492    0.9250    0.3993 H   0  0  0  0  0  0
   -0.0757    2.1726   -1.0455 H   0  0  0  0  0  0
   -0.1220    2.0855    0.6862 H   0  0  0  0  0  0
   -0.3006   -0.3068    0.7042 H   0  0  0  0  0  0
    1.8748    1.4782   -1.7287 H   0  0  0  0  0  0
    2.5216    1.9247   -0.1881 H   0  0  0  0  0  0
    3.7573   -0.1720   -1.9867 H   0  0  0  0  0  0
    4.4596    1.3807   -1.5586 H   0  0  0  0  0  0
    4.0096   -1.3642    1.6555 H   0  0  0  0  0  0
    8.3852   -2.5371    0.2082 H   0  0  0  0  0  0
    9.7475   -0.5059    0.5243 H   0  0  0  0  0  0
   -2.1643   -1.3744   -0.2107 H   0  0  0  0  0  0
   -2.1459   -2.3108   -4.4043 H   0  0  0  0  0  0
    0.1049   -1.2499   -4.5524 H   0  0  0  0  0  0
   -3.1143   -4.0611   -0.8613 H   0  0  0  0  0  0
   -5.3616   -4.9192   -0.5136 H   0  0  0  0  0  0
   -8.2610   -3.6523   -2.3248 H   0  0  0  0  0  0
  -11.2099   -5.9530    0.0158 H   0  0  0  0  0  0
  -10.1300   -6.4329    2.2386 H   0  0  0  0  0  0
   -7.7724   -5.6134    2.5659 H   0  0  0  0  0  0
   -6.9574   -1.7929   -2.9883 H   0  0  0  0  0  0
   -4.9818   -0.8004   -4.5103 H   0  0  0  0  0  0
  1  2  1  0  0  0
  1 45  1  0  0  0
  1 46  1  0  0  0
  1 47  1  0  0  0
  2  3  1  0  0  0
  2 43  1  0  0  0
  2 48  1  0  0  0
  3  4  1  0  0  0
  3 49  1  0  0  0
  3 50  1  0  0  0
  4  5  1  0  0  0
  4 51  1  0  0  0
  4 52  1  0  0  0
  5  6  1  0  0  0
  5 53  1  0  0  0
  5 54  1  0  0  0
  6  7  1  0  0  0
  6 23  1  0  0  0
  6 55  1  0  0  0
  7  8  1  0  0  0
  7 12  1  0  0  0
  8  9  1  0  0  0
  8 56  1  0  0  0
  8 57  1  0  0  0
  9 10  1  0  0  0
  9 58  1  0  0  0
  9 59  1  0  0  0
 10 11  2  0  0  0
 10 14  1  0  0  0
 11 12  1  0  0  0
 11 60  1  0  0  0
 12 13  2  0  0  0
 14 15  2  0  0  0
 14 21  1  0  0  0
 15 16  1  0  0  0
 15 17  1  0  0  0
 17 18  2  0  0  0
 17 61  1  0  0  0
 18 19  1  0  0  0
 18 62  1  0  0  0
 19 20  1  0  0  0
 19 21  2  0  0  0
 21 22  1  0  0  0
 23 24  1  0  0  0
 23 28  2  0  0  0
 24 25  2  0  0  0
 24 63  1  0  0  0
 25 26  1  0  0  0
 25 29  1  0  0  0
 26 27  2  0  0  0
 26 64  1  0  0  0
 27 28  1  0  0  0
 27 65  1  0  0  0
 29 30  2  0  0  0
 29 41  1  0  0  0
 30 31  1  0  0  0
 30 66  1  0  0  0
 31 32  2  0  0  0
 31 67  1  0  0  0
 32 33  1  0  0  0
 32 40  1  0  0  0
 33 34  1  0  0  0
 33 68  1  0  0  0
 34 35  2  0  0  0
 34 39  1  0  0  0
 35 36  1  0  0  0
 36 37  2  0  0  0
 36 69  1  0  0  0
 37 38  1  0  0  0
 37 70  1  0  0  0
 38 39  2  0  0  0
 38 71  1  0  0  0
 40 41  2  0  0  0
 40 72  1  0  0  0
 41 42  1  0  0  0
 42 43  1  0  0  0
 42 73  1  0  0  0
 43 44  2  0  0  0
M  END
> <chembl_id>
CHEMBL4107104

> <chembl_pref_name>
None

> <i_m_ct_stereo_status>
1

> <s_m_source_file>
sdf/actives_sanitized.sdf

> <i_m_source_file_index>
209

> <i_lp_mmshare_version>
49012

> <i_f3d_flags>
0

> <s_epik_input>
bjFbY0hdW2NIXVtjSF1uYzFbTkhdYyhbY0hdW2NIXTIpW2NIXWMoYzJjKFtjSF1jMzQpW2NIXVtjSF1uNClbTkhdQyg9TylbQ0BIXShbQ0gzXSlbQ0gyXVtDSDJdW0NIMl1bQ0BASF0zTjVbQ0gyXVtDSDJdQyg9W0NIXUM1PU8pYzZjKEYpW2NIXVtjSF1jKENsKWM2Rg==

> <s_epik_cmdline>
J2VwaWtfcHl0aG9uJywgJy1waHQnLCAnMC41JywgJy1waCcsICc3LjUnLCAnLW50JywgJy1tYScsICcyMDAnLCAnLWltYWUnLCAnPGluZmlsZS5tYWU+JywgJy1vbWFlJywgJzxvdXRmaWxlLm1hZT4n

> <r_lp_tautomer_probability>
1

> <r_epik_Ionization_Penalty>
  0.0001

> <r_epik_Ionization_Penalty_Charging>
  0.0000

> <r_epik_Ionization_Penalty_Neutral>
  0.0001

> <r_epik_State_Penalty>
 -0.0000

> <r_epik_Charging_Adjusted_Penalty>
0

> <i_epik_Tot_Q>
0

> <i_epik_Tot_abs_Q>
0

> <s_lp_Force_Field>
OPLS3e

> <r_lp_Energy>
104.747145

> <b_lp_Chiralities_Consistent>
1

> <s_lp_Variant>
sdf/actives_sanitized.sdf:209-1

$$$$
sdf/actives_sanitized.sdf:210
                    3D
 Schrodinger Suite 2020-1.
 73 78  0  0  1  0            999 V2000
   -1.8375    3.3740   -3.2467 C   0  0  0  0  0  0
   -3.1393    2.7871   -2.6620 C   0  0  2  0  0  0
   -4.3705    3.2320   -3.5213 C   0  0  0  0  0  0
   -5.7825    2.7778   -3.0533 C   0  0  0  0  0  0
   -6.2855    1.4283   -3.6325 C   0  0  0  0  0  0
   -7.1407    0.5418   -2.6654 C   0  0  2  0  0  0
   -8.4798    1.1347   -2.4152 N   0  0  0  0  0  0
   -8.5990    2.3094   -1.5027 C   0  0  0  0  0  0
  -10.0179    2.4300   -0.8871 C   0  0  0  0  0  0
  -11.0446    2.3167   -2.0023 C   0  0  0  0  0  0
  -10.7741    1.4736   -3.0199 C   0  0  0  0  0  0
   -9.5434    0.7281   -3.1853 C   0  0  0  0  0  0
   -9.5121   -0.2344   -3.9541 O   0  0  0  0  0  0
  -12.4116    2.8749   -1.8410 C   0  0  0  0  0  0
  -13.1255    2.7117   -0.6407 C   0  0  0  0  0  0
  -12.5964    2.0218    0.3968 F   0  0  0  0  0  0
  -14.4074    3.2424   -0.4991 C   0  0  0  0  0  0
  -14.9971    3.9422   -1.5481 C   0  0  0  0  0  0
  -14.3045    4.1167   -2.7440 C   0  0  0  0  0  0
  -15.0480    4.9921   -4.0353 Cl  0  0  0  0  0  0
  -13.0181    3.5888   -2.8910 C   0  0  0  0  0  0
  -12.3533    3.7862   -4.0558 F   0  0  0  0  0  0
   -6.3916    0.0898   -1.3912 C   0  0  0  0  0  0
   -7.0555   -0.2291   -0.1951 C   0  0  0  0  0  0
   -6.3005   -0.5348    0.9423 C   0  0  0  0  0  0
   -4.9414   -0.5181    0.9580 N   0  0  0  0  0  0
   -4.3053   -0.2162   -0.2032 C   0  0  0  0  0  0
   -4.9951    0.0414   -1.3836 C   0  0  0  0  0  0
   -2.8272   -0.1047   -0.1838 C   0  0  0  0  0  0
   -2.0512   -1.2671   -0.1570 C   0  0  0  0  0  0
   -0.6612   -1.2017   -0.2349 C   0  0  0  0  0  0
   -0.0127    0.0346   -0.3516 C   0  0  0  0  0  0
    1.3850    0.1666   -0.4236 N   0  0  0  0  0  0
    2.3125   -0.7956   -0.7454 C   0  0  0  0  0  0
    1.9334   -1.8829   -1.4654 O   0  0  0  0  0  0
    3.1037   -2.5487   -1.6246 C   0  0  0  0  0  0
    3.0955   -3.8575   -2.3758 C   0  0  0  0  0  0
    4.1210   -1.9301   -1.0785 N   0  0  0  0  0  0
    3.6013   -0.7667   -0.5161 N   0  0  0  0  0  0
   -0.7803    1.2016   -0.3561 C   0  0  0  0  0  0
   -2.1759    1.1418   -0.2820 C   0  0  0  0  0  0
   -2.8836    2.3481   -0.1714 N   0  0  0  0  0  0
   -3.2690    3.1782   -1.1646 C   0  0  0  0  0  0
   -3.7472    4.2749   -0.8763 O   0  0  0  0  0  0
   -0.9581    3.0300   -2.7008 H   0  0  0  0  0  0
   -1.8344    4.4649   -3.2170 H   0  0  0  0  0  0
   -1.7041    3.0732   -4.2865 H   0  0  0  0  0  0
   -3.0430    1.7081   -2.7462 H   0  0  0  0  0  0
   -4.3763    4.3231   -3.5593 H   0  0  0  0  0  0
   -4.2244    2.9209   -4.5568 H   0  0  0  0  0  0
   -5.8243    2.7661   -1.9657 H   0  0  0  0  0  0
   -6.5011    3.5464   -3.3410 H   0  0  0  0  0  0
   -6.8678    1.6308   -4.5330 H   0  0  0  0  0  0
   -5.4470    0.8445   -4.0115 H   0  0  0  0  0  0
   -7.2766   -0.4047   -3.1912 H   0  0  0  0  0  0
   -7.7775    2.3861   -0.7905 H   0  0  0  0  0  0
   -8.5030    3.1857   -2.1455 H   0  0  0  0  0  0
  -10.1490    1.6101   -0.1799 H   0  0  0  0  0  0
  -10.1268    3.3647   -0.3359 H   0  0  0  0  0  0
  -11.5370    1.2980   -3.7658 H   0  0  0  0  0  0
  -14.9479    3.1072    0.4262 H   0  0  0  0  0  0
  -15.9911    4.3485   -1.4305 H   0  0  0  0  0  0
   -8.1342   -0.2284   -0.1367 H   0  0  0  0  0  0
   -6.7875   -0.7775    1.8753 H   0  0  0  0  0  0
   -4.4281    0.2277   -2.2764 H   0  0  0  0  0  0
   -2.5287   -2.2339   -0.0882 H   0  0  0  0  0  0
   -0.1035   -2.1247   -0.1936 H   0  0  0  0  0  0
    1.6913    1.1249   -0.3401 H   0  0  0  0  0  0
    4.0893   -4.3023   -2.4376 H   0  0  0  0  0  0
    2.7360   -3.7288   -3.3967 H   0  0  0  0  0  0
    2.4454   -4.5883   -1.8946 H   0  0  0  0  0  0
   -0.2904    2.1646   -0.4059 H   0  0  0  0  0  0
   -3.0865    2.6420    0.7730 H   0  0  0  0  0  0
  1  2  1  0  0  0
  1 45  1  0  0  0
  1 46  1  0  0  0
  1 47  1  0  0  0
  2  3  1  0  0  0
  2 43  1  0  0  0
  2 48  1  0  0  0
  3  4  1  0  0  0
  3 49  1  0  0  0
  3 50  1  0  0  0
  4  5  1  0  0  0
  4 51  1  0  0  0
  4 52  1  0  0  0
  5  6  1  0  0  0
  5 53  1  0  0  0
  5 54  1  0  0  0
  6  7  1  0  0  0
  6 23  1  0  0  0
  6 55  1  0  0  0
  7  8  1  0  0  0
  7 12  1  0  0  0
  8  9  1  0  0  0
  8 56  1  0  0  0
  8 57  1  0  0  0
  9 10  1  0  0  0
  9 58  1  0  0  0
  9 59  1  0  0  0
 10 11  2  0  0  0
 10 14  1  0  0  0
 11 12  1  0  0  0
 11 60  1  0  0  0
 12 13  2  0  0  0
 14 15  2  0  0  0
 14 21  1  0  0  0
 15 16  1  0  0  0
 15 17  1  0  0  0
 17 18  2  0  0  0
 17 61  1  0  0  0
 18 19  1  0  0  0
 18 62  1  0  0  0
 19 20  1  0  0  0
 19 21  2  0  0  0
 21 22  1  0  0  0
 23 24  1  0  0  0
 23 28  2  0  0  0
 24 25  2  0  0  0
 24 63  1  0  0  0
 25 26  1  0  0  0
 25 64  1  0  0  0
 26 27  2  0  0  0
 27 28  1  0  0  0
 27 29  1  0  0  0
 28 65  1  0  0  0
 29 30  2  0  0  0
 29 41  1  0  0  0
 30 31  1  0  0  0
 30 66  1  0  0  0
 31 32  2  0  0  0
 31 67  1  0  0  0
 32 33  1  0  0  0
 32 40  1  0  0  0
 33 34  1  0  0  0
 33 68  1  0  0  0
 34 35  1  0  0  0
 34 39  2  0  0  0
 35 36  1  0  0  0
 36 37  1  0  0  0
 36 38  2  0  0  0
 37 69  1  0  0  0
 37 70  1  0  0  0
 37 71  1  0  0  0
 38 39  1  0  0  0
 40 41  2  0  0  0
 40 72  1  0  0  0
 41 42  1  0  0  0
 42 43  1  0  0  0
 42 73  1  0  0  0
 43 44  2  0  0  0
M  END
> <chembl_id>
CHEMBL4110812

> <chembl_pref_name>
None

> <i_m_ct_stereo_status>
1

> <s_m_source_file>
sdf/actives_sanitized.sdf

> <i_m_source_file_index>
210

> <i_lp_mmshare_version>
49012

> <i_f3d_flags>
0

> <s_epik_input>
bjFuYyhbQ0gzXSlvYzFbTkhdYyhbY0hdW2NIXTIpW2NIXWMoYzJjKFtjSF0zKW5bY0hdW2NIXWMzNClbTkhdQyg9TylbQ0BIXShbQ0gzXSlbQ0gyXVtDSDJdW0NIMl1bQ0BASF00TjVbQ0gyXVtDSDJdQyg9W0NIXUM1PU8pYzZjKEYpW2NIXVtjSF1jKENsKWM2Rg==

> <s_epik_cmdline>
J2VwaWtfcHl0aG9uJywgJy1waHQnLCAnMC41JywgJy1waCcsICc3LjUnLCAnLW50JywgJy1tYScsICcyMDAnLCAnLWltYWUnLCAnPGluZmlsZS5tYWU+JywgJy1vbWFlJywgJzxvdXRmaWxlLm1hZT4n

> <r_lp_tautomer_probability>
1

> <r_epik_Ionization_Penalty>
  0.0020

> <r_epik_Ionization_Penalty_Charging>
  0.0000

> <r_epik_Ionization_Penalty_Neutral>
  0.0020

> <r_epik_State_Penalty>
 -0.0000

> <r_epik_Charging_Adjusted_Penalty>
0

> <i_epik_Tot_Q>
0

> <i_epik_Tot_abs_Q>
0

> <s_lp_Force_Field>
OPLS3e

> <r_lp_Energy>
98.383295

> <b_lp_Chiralities_Consistent>
1

> <s_lp_Variant>
sdf/actives_sanitized.sdf:210-1

$$$$
sdf/actives_sanitized.sdf:211
                    3D
 Schrodinger Suite 2020-1.
 74 78  0  0  1  0            999 V2000
  -10.1638   -6.1854   -0.6650 C   0  0  0  0  0  0
   -9.4052   -5.1508   -1.2762 O   0  0  0  0  0  0
   -8.0641   -5.1056   -1.1438 C   0  0  0  0  0  0
   -7.3998   -5.9320   -0.5147 O   0  0  0  0  0  0
   -7.5968   -3.9827   -1.8199 N   0  0  0  0  0  0
   -6.2827   -3.5066   -1.9644 C   0  0  0  0  0  0
   -5.1386   -4.1734   -1.5031 C   0  0  0  0  0  0
   -3.8771   -3.6120   -1.6896 C   0  0  0  0  0  0
   -3.7194   -2.3826   -2.3383 C   0  0  0  0  0  0
   -4.8736   -1.7054   -2.7893 C   0  0  0  0  0  0
   -4.8296   -0.4717   -3.4583 N   0  0  0  0  0  0
   -4.5661    0.7471   -2.9342 C   0  0  0  0  0  0
   -4.6399    1.7399   -3.6574 O   0  0  0  0  0  0
   -4.1704    0.9410   -1.4459 C   0  0  2  0  0  0
   -5.2785    1.6839   -0.6721 C   0  0  0  0  0  0
   -2.7960    1.6631   -1.3300 C   0  0  0  0  0  0
   -2.0976    1.5269    0.0490 C   0  0  0  0  0  0
   -0.5468    1.4691   -0.0118 C   0  0  0  0  0  0
    0.0751    0.0502   -0.2210 C   0  0  2  0  0  0
    1.5588    0.0409   -0.1696 N   0  0  0  0  0  0
    2.3242    1.1543   -0.8083 C   0  0  0  0  0  0
    3.7678    0.7595   -1.2221 C   0  0  0  0  0  0
    4.4003   -0.0399   -0.1027 C   0  0  0  0  0  0
    3.6238   -0.8790    0.6064 C   0  0  0  0  0  0
    2.1925   -1.0112    0.4460 C   0  0  0  0  0  0
    1.6182   -2.0238    0.8507 O   0  0  0  0  0  0
    5.8675   -0.1154    0.0117 C   0  0  0  0  0  0
    6.5585    0.7156    0.9078 C   0  0  0  0  0  0
    5.6354    1.9725    2.0089 Br  0  0  0  0  0  0
    7.9471    0.6345    1.0096 C   0  0  0  0  0  0
    8.6581   -0.2681    0.2225 C   0  0  0  0  0  0
    7.9851   -1.0973   -0.6775 C   0  0  0  0  0  0
    8.7658   -2.0816   -1.5325 C   0  0  0  0  0  0
    6.5908   -1.0200   -0.7804 C   0  0  0  0  0  0
    5.9377   -1.8267   -1.6525 F   0  0  0  0  0  0
   -0.5011   -0.6579   -1.4504 C   0  0  0  0  0  0
   -1.6760   -1.4006   -1.3199 C   0  0  0  0  0  0
   -2.3566   -1.8094   -2.4693 C   0  0  0  0  0  0
   -1.7625   -1.5776   -3.7159 C   0  0  0  0  0  0
   -0.5336   -0.9150   -3.7635 C   0  0  0  0  0  0
    0.0910   -0.4376   -2.6565 N   0  0  0  0  0  0
   -6.1362   -2.2798   -2.6151 C   0  0  0  0  0  0
  -11.2237   -6.0404   -0.8748 H   0  0  0  0  0  0
  -10.0296   -6.1826    0.4178 H   0  0  0  0  0  0
   -9.8718   -7.1643   -1.0480 H   0  0  0  0  0  0
   -8.3041   -3.4172   -2.2658 H   0  0  0  0  0  0
   -5.1929   -5.1250   -0.9997 H   0  0  0  0  0  0
   -3.0100   -4.1418   -1.3214 H   0  0  0  0  0  0
   -5.1432   -0.4910   -4.4177 H   0  0  0  0  0  0
   -4.0751   -0.0361   -0.9777 H   0  0  0  0  0  0
   -6.2299    1.1528   -0.7307 H   0  0  0  0  0  0
   -5.4398    2.6902   -1.0618 H   0  0  0  0  0  0
   -5.0271    1.7757    0.3849 H   0  0  0  0  0  0
   -2.1292    1.2881   -2.1056 H   0  0  0  0  0  0
   -2.9074    2.7211   -1.5742 H   0  0  0  0  0  0
   -2.3985    2.3764    0.6636 H   0  0  0  0  0  0
   -2.4634    0.6513    0.5864 H   0  0  0  0  0  0
   -0.1980    2.1696   -0.7706 H   0  0  0  0  0  0
   -0.1661    1.8553    0.9350 H   0  0  0  0  0  0
   -0.2741   -0.5248    0.6393 H   0  0  0  0  0  0
    1.7596    1.6417   -1.6028 H   0  0  0  0  0  0
    2.4250    1.9127   -0.0306 H   0  0  0  0  0  0
    3.7085    0.1336   -2.1137 H   0  0  0  0  0  0
    4.3591    1.6398   -1.4760 H   0  0  0  0  0  0
    4.0902   -1.5280    1.3346 H   0  0  0  0  0  0
    8.4763    1.2731    1.7016 H   0  0  0  0  0  0
    9.7334   -0.3189    0.3144 H   0  0  0  0  0  0
    8.6788   -1.8180   -2.5871 H   0  0  0  0  0  0
    8.3608   -3.0871   -1.4119 H   0  0  0  0  0  0
    9.8226   -2.1137   -1.2641 H   0  0  0  0  0  0
   -2.1251   -1.5406   -0.3470 H   0  0  0  0  0  0
   -2.2529   -1.8847   -4.6280 H   0  0  0  0  0  0
   -0.0512   -0.7192   -4.7097 H   0  0  0  0  0  0
   -7.0124   -1.7580   -2.9765 H   0  0  0  0  0  0
  1  2  1  0  0  0
  1 43  1  0  0  0
  1 44  1  0  0  0
  1 45  1  0  0  0
  2  3  1  0  0  0
  3  4  2  0  0  0
  3  5  1  0  0  0
  5  6  1  0  0  0
  5 46  1  0  0  0
  6  7  2  0  0  0
  6 42  1  0  0  0
  7  8  1  0  0  0
  7 47  1  0  0  0
  8  9  2  0  0  0
  8 48  1  0  0  0
  9 10  1  0  0  0
  9 38  1  0  0  0
 10 11  1  0  0  0
 10 42  2  0  0  0
 11 12  1  0  0  0
 11 49  1  0  0  0
 12 13  2  0  0  0
 12 14  1  0  0  0
 14 15  1  0  0  0
 14 16  1  0  0  0
 14 50  1  0  0  0
 15 51  1  0  0  0
 15 52  1  0  0  0
 15 53  1  0  0  0
 16 17  1  0  0  0
 16 54  1  0  0  0
 16 55  1  0  0  0
 17 18  1  0  0  0
 17 56  1  0  0  0
 17 57  1  0  0  0
 18 19  1  0  0  0
 18 58  1  0  0  0
 18 59  1  0  0  0
 19 20  1  0  0  0
 19 36  1  0  0  0
 19 60  1  0  0  0
 20 21  1  0  0  0
 20 25  1  0  0  0
 21 22  1  0  0  0
 21 61  1  0  0  0
 21 62  1  0  0  0
 22 23  1  0  0  0
 22 63  1  0  0  0
 22 64  1  0  0  0
 23 24  2  0  0  0
 23 27  1  0  0  0
 24 25  1  0  0  0
 24 65  1  0  0  0
 25 26  2  0  0  0
 27 28  2  0  0  0
 27 34  1  0  0  0
 28 29  1  0  0  0
 28 30  1  0  0  0
 30 31  2  0  0  0
 30 66  1  0  0  0
 31 32  1  0  0  0
 31 67  1  0  0  0
 32 33  1  0  0  0
 32 34  2  0  0  0
 33 68  1  0  0  0
 33 69  1  0  0  0
 33 70  1  0  0  0
 34 35  1  0  0  0
 36 37  1  0  0  0
 36 41  2  0  0  0
 37 38  2  0  0  0
 37 71  1  0  0  0
 38 39  1  0  0  0
 39 40  2  0  0  0
 39 72  1  0  0  0
 40 41  1  0  0  0
 40 73  1  0  0  0
 42 74  1  0  0  0
M  END
> <chembl_id>
CHEMBL4111371

> <chembl_pref_name>
None

> <i_m_ct_stereo_status>
1

> <s_m_source_file>
sdf/actives_sanitized.sdf

> <i_m_source_file_index>
211

> <i_lp_mmshare_version>
49012

> <i_f3d_flags>
0

> <s_epik_input>
W0NIM11PQyg9TylbTkhdYyhbY0hdW2NIXTEpW2NIXWMoYzEyKVtOSF1DKD1PKVtDQEhdKFtDSDNdKVtDSDJdW0NIMl1bQ0gyXVtDQEBIXShjM1tjSF1jMltjSF1bY0hdbjMpTjRbQ0gyXVtDSDJdQyg9W0NIXUM0PU8pYzVjKEJyKVtjSF1bY0hdYyhbQ0gzXSljNUY=

> <s_epik_cmdline>
J2VwaWtfcHl0aG9uJywgJy1waHQnLCAnMC41JywgJy1waCcsICc3LjUnLCAnLW50JywgJy1tYScsICcyMDAnLCAnLWltYWUnLCAnPGluZmlsZS5tYWU+JywgJy1vbWFlJywgJzxvdXRmaWxlLm1hZT4n

> <r_lp_tautomer_probability>
1

> <r_epik_Ionization_Penalty>
  0.0001

> <r_epik_Ionization_Penalty_Charging>
  0.0000

> <r_epik_Ionization_Penalty_Neutral>
  0.0001

> <r_epik_State_Penalty>
 -0.0000

> <r_epik_Charging_Adjusted_Penalty>
0

> <i_epik_Tot_Q>
0

> <i_epik_Tot_abs_Q>
0

> <s_epik_Chemistry_Notes>
This compound has an ester and may undergo hydrolysis at high or low pH.

> <s_lp_Force_Field>
OPLS3e

> <r_lp_Energy>
87.565138

> <b_lp_Chiralities_Consistent>
1

> <s_lp_Variant>
sdf/actives_sanitized.sdf:211-1

$$$$
sdf/actives_sanitized.sdf:212
                    3D
 Schrodinger Suite 2020-1.
 66 70  0  0  1  0            999 V2000
   -4.8768    3.3452   -0.9384 C   0  0  0  0  0  0
   -3.6980    2.3474   -0.9251 C   0  0  2  0  0  0
   -2.7991    2.5947    0.3373 C   0  0  0  0  0  0
   -1.8577    1.4521    0.8118 C   0  0  0  0  0  0
   -0.5201    1.2953    0.0380 C   0  0  0  0  0  0
    0.0412   -0.1653   -0.0622 C   0  0  2  0  0  0
    1.5235   -0.1578   -0.0333 N   0  0  0  0  0  0
    2.2445    0.6570   -1.0542 C   0  0  0  0  0  0
    3.6785    0.1301   -1.3278 C   0  0  0  0  0  0
    4.3705   -0.1201    0.0019 C   0  0  0  0  0  0
    3.6237   -0.5962    1.0191 C   0  0  0  0  0  0
    2.1917   -0.8051    0.9762 C   0  0  0  0  0  0
    1.6529   -1.5487    1.7974 O   0  0  0  0  0  0
    5.8512   -0.1271    0.0995 C   0  0  0  0  0  0
    6.6379   -0.8002   -0.8512 C   0  0  0  0  0  0
    6.0655   -1.4820   -1.8710 F   0  0  0  0  0  0
    8.0291   -0.7948   -0.7526 C   0  0  0  0  0  0
    8.6559   -0.1210    0.2919 C   0  0  0  0  0  0
    7.8924    0.5525    1.2429 C   0  0  0  0  0  0
    8.6852    1.3879    2.5312 Cl  0  0  0  0  0  0
    6.4974    0.5518    1.1483 C   0  0  0  0  0  0
    5.7717    1.2267    2.0729 F   0  0  0  0  0  0
   -0.5332   -0.9598   -1.2611 C   0  0  0  0  0  0
    0.2142   -1.8945   -1.9950 C   0  0  0  0  0  0
   -0.3307   -2.5100   -3.1261 C   0  0  0  0  0  0
   -1.6207   -2.1847   -3.5539 C   0  0  0  0  0  0
   -2.3824   -1.2547   -2.8401 C   0  0  0  0  0  0
   -1.8356   -0.7056   -1.6862 C   0  0  0  0  0  0
   -3.7479   -0.8215   -3.2518 C   0  0  0  0  0  0
   -4.7327   -1.7901   -3.4832 C   0  0  0  0  0  0
   -6.0546   -1.4425   -3.8059 C   0  0  0  0  0  0
   -6.3783   -0.0810   -3.8986 C   0  0  0  0  0  0
   -5.4132    0.8998   -3.6867 C   0  0  0  0  0  0
   -4.1027    0.5427   -3.3609 C   0  0  0  0  0  0
   -3.1379    1.5634   -3.2807 N   0  0  0  0  0  0
   -2.9322    2.4434   -2.2730 C   0  0  0  0  0  0
   -2.1111    3.3473   -2.4254 O   0  0  0  0  0  0
   -7.0950   -2.4993   -4.0434 C   0  0  0  0  0  0
   -8.2535   -2.1280   -4.3417 O   0  0  0  0  0  0
   -6.7519   -3.6988   -3.9319 O   0  5  0  0  0  0
   -5.5454    3.1754   -1.7827 H   0  0  0  0  0  0
   -4.5313    4.3786   -0.9990 H   0  0  0  0  0  0
   -5.4813    3.2525   -0.0356 H   0  0  0  0  0  0
   -4.1405    1.3559   -0.8272 H   0  0  0  0  0  0
   -2.2297    3.5198    0.2309 H   0  0  0  0  0  0
   -3.4685    2.7860    1.1776 H   0  0  0  0  0  0
   -1.5999    1.6414    1.8550 H   0  0  0  0  0  0
   -2.4164    0.5182    0.8594 H   0  0  0  0  0  0
   -0.5979    1.7104   -0.9651 H   0  0  0  0  0  0
    0.2063    1.9415    0.5345 H   0  0  0  0  0  0
   -0.3339   -0.7006    0.8115 H   0  0  0  0  0  0
    1.6426    0.8336   -1.9462 H   0  0  0  0  0  0
    2.3781    1.6395   -0.5990 H   0  0  0  0  0  0
    3.5917   -0.8082   -1.8773 H   0  0  0  0  0  0
    4.2402    0.8293   -1.9482 H   0  0  0  0  0  0
    4.1179   -0.8817    1.9374 H   0  0  0  0  0  0
    8.6241   -1.3184   -1.4866 H   0  0  0  0  0  0
    9.7340   -0.1224    0.3614 H   0  0  0  0  0  0
    1.2241   -2.1437   -1.7051 H   0  0  0  0  0  0
    0.2559   -3.2251   -3.6838 H   0  0  0  0  0  0
   -2.0208   -2.6460   -4.4452 H   0  0  0  0  0  0
   -2.4586   -0.0338   -1.1366 H   0  0  0  0  0  0
   -4.4586   -2.8320   -3.3900 H   0  0  0  0  0  0
   -7.3811    0.2343   -4.1504 H   0  0  0  0  0  0
   -5.6862    1.9388   -3.8014 H   0  0  0  0  0  0
   -2.5209    1.6323   -4.0767 H   0  0  0  0  0  0
  1  2  1  0  0  0
  1 41  1  0  0  0
  1 42  1  0  0  0
  1 43  1  0  0  0
  2  3  1  0  0  0
  2 36  1  0  0  0
  2 44  1  0  0  0
  3  4  1  0  0  0
  3 45  1  0  0  0
  3 46  1  0  0  0
  4  5  1  0  0  0
  4 47  1  0  0  0
  4 48  1  0  0  0
  5  6  1  0  0  0
  5 49  1  0  0  0
  5 50  1  0  0  0
  6  7  1  0  0  0
  6 23  1  0  0  0
  6 51  1  0  0  0
  7  8  1  0  0  0
  7 12  1  0  0  0
  8  9  1  0  0  0
  8 52  1  0  0  0
  8 53  1  0  0  0
  9 10  1  0  0  0
  9 54  1  0  0  0
  9 55  1  0  0  0
 10 11  2  0  0  0
 10 14  1  0  0  0
 11 12  1  0  0  0
 11 56  1  0  0  0
 12 13  2  0  0  0
 14 15  2  0  0  0
 14 21  1  0  0  0
 15 16  1  0  0  0
 15 17  1  0  0  0
 17 18  2  0  0  0
 17 57  1  0  0  0
 18 19  1  0  0  0
 18 58  1  0  0  0
 19 20  1  0  0  0
 19 21  2  0  0  0
 21 22  1  0  0  0
 23 24  1  0  0  0
 23 28  2  0  0  0
 24 25  2  0  0  0
 24 59  1  0  0  0
 25 26  1  0  0  0
 25 60  1  0  0  0
 26 27  2  0  0  0
 26 61  1  0  0  0
 27 28  1  0  0  0
 27 29  1  0  0  0
 28 62  1  0  0  0
 29 30  2  0  0  0
 29 34  1  0  0  0
 30 31  1  0  0  0
 30 63  1  0  0  0
 31 32  2  0  0  0
 31 38  1  0  0  0
 32 33  1  0  0  0
 32 64  1  0  0  0
 33 34  2  0  0  0
 33 65  1  0  0  0
 34 35  1  0  0  0
 35 36  1  0  0  0
 35 66  1  0  0  0
 36 37  2  0  0  0
 38 39  2  0  0  0
 38 40  1  0  0  0
M  CHG  1  40  -1
M  END
> <chembl_id>
CHEMBL4113057

> <chembl_pref_name>
None

> <i_m_ct_stereo_status>
1

> <s_m_source_file>
sdf/actives_sanitized.sdf

> <i_m_source_file_index>
212

> <i_lp_mmshare_version>
49012

> <i_f3d_flags>
0

> <s_epik_input>
YzEyW2NIXVtjSF1bY0hdYyhbY0hdMiljM2MoW2NIXVtjSF1jKFtjSF0zKUMoPU8pW09IXSlbTkhdQyg9TylbQ0BIXShbQ0gzXSlbQ0gyXVtDSDJdW0NIMl1bQ0BASF0xTjRbQ0gyXVtDSDJdQyg9W0NIXUM0PU8pYzVjKEYpW2NIXVtjSF1jKENsKWM1Rg==

> <s_epik_cmdline>
J2VwaWtfcHl0aG9uJywgJy1waHQnLCAnMC41JywgJy1waCcsICc3LjUnLCAnLW50JywgJy1tYScsICcyMDAnLCAnLWltYWUnLCAnPGluZmlsZS5tYWU+JywgJy1vbWFlJywgJzxvdXRmaWxlLm1hZT4n

> <r_lp_tautomer_probability>
1

> <r_epik_Ionization_Penalty>
  0.0003

> <r_epik_Ionization_Penalty_Charging>
  0.0003

> <r_epik_Ionization_Penalty_Neutral>
  0.0000

> <r_epik_State_Penalty>
 -0.0000

> <r_epik_Charging_Adjusted_Penalty>
0.000302429357200531

> <i_epik_Tot_Q>
-1

> <i_epik_Tot_abs_Q>
1

> <s_lp_Force_Field>
OPLS3e

> <r_lp_Energy>
99.74935

> <b_lp_Chiralities_Consistent>
1

> <s_lp_Variant>
sdf/actives_sanitized.sdf:212-1

$$$$
sdf/actives_sanitized.sdf:213
                    3D
 Schrodinger Suite 2020-1.
 77 81  0  0  1  0            999 V2000
  -10.1601   -6.1979   -0.3327 C   0  0  0  0  0  0
   -9.4153   -5.1916   -1.0048 O   0  0  0  0  0  0
   -8.0786   -5.1026   -0.8509 C   0  0  0  0  0  0
   -7.4079   -5.8622   -0.1486 O   0  0  0  0  0  0
   -7.6236   -4.0220   -1.6007 N   0  0  0  0  0  0
   -6.3168   -3.5299   -1.7597 C   0  0  0  0  0  0
   -5.1665   -4.1441   -1.2446 C   0  0  0  0  0  0
   -3.9129   -3.5752   -1.4591 C   0  0  0  0  0  0
   -3.7695   -2.3881   -2.1856 C   0  0  0  0  0  0
   -4.9325   -1.7527   -2.6768 C   0  0  0  0  0  0
   -4.9179   -0.5512   -3.4057 N   0  0  0  0  0  0
   -4.5536    0.6829   -2.9863 C   0  0  0  0  0  0
   -4.5876    1.6203   -3.7828 O   0  0  0  0  0  0
   -4.1350    0.9723   -1.5194 C   0  0  2  0  0  0
   -5.2403    1.7548   -0.7811 C   0  0  0  0  0  0
   -2.7656    1.7117   -1.4575 C   0  0  0  0  0  0
   -2.0555    1.6583   -0.0772 C   0  0  0  0  0  0
   -0.5061    1.5593   -0.1401 C   0  0  0  0  0  0
    0.0789    0.1157   -0.2739 C   0  0  2  0  0  0
    1.5591    0.0392   -0.1921 N   0  0  0  0  0  0
    2.3941    1.1560   -0.7297 C   0  0  0  0  0  0
    3.8229    0.7155   -1.1502 C   0  0  0  0  0  0
    4.3945   -0.2018   -0.0866 C   0  0  0  0  0  0
    3.5589   -1.0281    0.5686 C   0  0  0  0  0  0
    2.1273   -1.0775    0.3727 C   0  0  0  0  0  0
    1.4969   -2.0846    0.7000 O   0  0  0  0  0  0
    5.8606   -0.3476    0.0675 C   0  0  0  0  0  0
    6.4493    0.2230    1.2093 C   0  0  0  0  0  0
    5.6737    0.8210    2.1472 F   0  0  0  0  0  0
    7.8334    0.1971    1.3883 C   0  0  0  0  0  0
    8.5515    0.8958    2.7964 Cl  0  0  0  0  0  0
    8.6471   -0.3828    0.4212 C   0  0  0  0  0  0
    8.0813   -0.9486   -0.7170 C   0  0  0  0  0  0
    6.6909   -0.9664   -0.9008 C   0  0  0  0  0  0
    6.1805   -1.5967   -2.1618 C   0  0  0  0  0  0
    6.7625   -1.5254   -3.2444 O   0  0  0  0  0  0
    5.0329   -2.5982   -2.0247 C   0  0  0  0  0  0
   -0.5086   -0.6312   -1.4738 C   0  0  0  0  0  0
    0.0615   -0.5594   -2.7505 C   0  0  0  0  0  0
   -0.5990   -1.1226   -3.8426 C   0  0  0  0  0  0
   -0.0570   -1.0341   -5.0782 F   0  0  0  0  0  0
   -1.8385   -1.7395   -3.6674 C   0  0  0  0  0  0
   -2.4058   -1.8387   -2.3922 C   0  0  0  0  0  0
   -1.6965   -1.3427   -1.2975 C   0  0  0  0  0  0
   -6.1848   -2.3437   -2.4844 C   0  0  0  0  0  0
  -11.2178   -6.1016   -0.5777 H   0  0  0  0  0  0
  -10.0528   -6.1072    0.7493 H   0  0  0  0  0  0
   -9.8311   -7.1944   -0.6314 H   0  0  0  0  0  0
   -8.3346   -3.5067   -2.0984 H   0  0  0  0  0  0
   -5.2093   -5.0645   -0.6851 H   0  0  0  0  0  0
   -3.0396   -4.0725   -1.0612 H   0  0  0  0  0  0
   -5.3606   -0.5978   -4.3117 H   0  0  0  0  0  0
   -4.0326    0.0273   -0.9920 H   0  0  0  0  0  0
   -6.1884    1.2149   -0.7952 H   0  0  0  0  0  0
   -5.4137    2.7337   -1.2310 H   0  0  0  0  0  0
   -4.9782    1.9142    0.2653 H   0  0  0  0  0  0
   -2.1029    1.3024   -2.2191 H   0  0  0  0  0  0
   -2.8899    2.7538   -1.7577 H   0  0  0  0  0  0
   -2.3326    2.5557    0.4777 H   0  0  0  0  0  0
   -2.4367    0.8328    0.5250 H   0  0  0  0  0  0
   -0.1460    2.2066   -0.9398 H   0  0  0  0  0  0
   -0.1121    1.9891    0.7822 H   0  0  0  0  0  0
   -0.2985   -0.3990    0.6127 H   0  0  0  0  0  0
    1.8769    1.7342   -1.4945 H   0  0  0  0  0  0
    2.5204    1.8448    0.1067 H   0  0  0  0  0  0
    3.7432    0.1736   -2.0927 H   0  0  0  0  0  0
    4.4650    1.5795   -1.3248 H   0  0  0  0  0  0
    3.9753   -1.7390    1.2690 H   0  0  0  0  0  0
    9.7197   -0.3952    0.5495 H   0  0  0  0  0  0
    8.7427   -1.3917   -1.4491 H   0  0  0  0  0  0
    5.0470   -3.0668   -1.0404 H   0  0  0  0  0  0
    5.1375   -3.3957   -2.7607 H   0  0  0  0  0  0
    4.0681   -2.1148   -2.1738 H   0  0  0  0  0  0
    0.9898   -0.0316   -2.9097 H   0  0  0  0  0  0
   -2.3673   -2.1260   -4.5267 H   0  0  0  0  0  0
   -2.1377   -1.4043   -0.3128 H   0  0  0  0  0  0
   -7.0675   -1.8611   -2.8823 H   0  0  0  0  0  0
  1  2  1  0  0  0
  1 46  1  0  0  0
  1 47  1  0  0  0
  1 48  1  0  0  0
  2  3  1  0  0  0
  3  4  2  0  0  0
  3  5  1  0  0  0
  5  6  1  0  0  0
  5 49  1  0  0  0
  6  7  2  0  0  0
  6 45  1  0  0  0
  7  8  1  0  0  0
  7 50  1  0  0  0
  8  9  2  0  0  0
  8 51  1  0  0  0
  9 10  1  0  0  0
  9 43  1  0  0  0
 10 11  1  0  0  0
 10 45  2  0  0  0
 11 12  1  0  0  0
 11 52  1  0  0  0
 12 13  2  0  0  0
 12 14  1  0  0  0
 14 15  1  0  0  0
 14 16  1  0  0  0
 14 53  1  0  0  0
 15 54  1  0  0  0
 15 55  1  0  0  0
 15 56  1  0  0  0
 16 17  1  0  0  0
 16 57  1  0  0  0
 16 58  1  0  0  0
 17 18  1  0  0  0
 17 59  1  0  0  0
 17 60  1  0  0  0
 18 19  1  0  0  0
 18 61  1  0  0  0
 18 62  1  0  0  0
 19 20  1  0  0  0
 19 38  1  0  0  0
 19 63  1  0  0  0
 20 21  1  0  0  0
 20 25  1  0  0  0
 21 22  1  0  0  0
 21 64  1  0  0  0
 21 65  1  0  0  0
 22 23  1  0  0  0
 22 66  1  0  0  0
 22 67  1  0  0  0
 23 24  2  0  0  0
 23 27  1  0  0  0
 24 25  1  0  0  0
 24 68  1  0  0  0
 25 26  2  0  0  0
 27 28  2  0  0  0
 27 34  1  0  0  0
 28 29  1  0  0  0
 28 30  1  0  0  0
 30 31  1  0  0  0
 30 32  2  0  0  0
 32 33  1  0  0  0
 32 69  1  0  0  0
 33 34  2  0  0  0
 33 70  1  0  0  0
 34 35  1  0  0  0
 35 36  2  0  0  0
 35 37  1  0  0  0
 37 71  1  0  0  0
 37 72  1  0  0  0
 37 73  1  0  0  0
 38 39  1  0  0  0
 38 44  2  0  0  0
 39 40  2  0  0  0
 39 74  1  0  0  0
 40 41  1  0  0  0
 40 42  1  0  0  0
 42 43  2  0  0  0
 42 75  1  0  0  0
 43 44  1  0  0  0
 44 76  1  0  0  0
 45 77  1  0  0  0
M  END
> <chembl_id>
CHEMBL4112546

> <chembl_pref_name>
None

> <i_m_ct_stereo_status>
1

> <s_m_source_file>
sdf/actives_sanitized.sdf

> <i_m_source_file_index>
213

> <i_lp_mmshare_version>
49012

> <i_f3d_flags>
0

> <s_epik_input>
W0NIM11PQyg9TylbTkhdYyhbY0hdW2NIXTEpW2NIXWMoYzEyKVtOSF1DKD1PKVtDQEhdKFtDSDNdKVtDSDJdW0NIMl1bQ0gyXVtDQEBIXShjM1tjSF1jKEYpW2NIXWMyW2NIXTMpTjRbQ0gyXVtDSDJdQyg9W0NIXUM0PU8pYzVjKEYpYyhDbClbY0hdW2NIXWM1Qyg9TylbQ0gzXQ==

> <s_epik_cmdline>
J2VwaWtfcHl0aG9uJywgJy1waHQnLCAnMC41JywgJy1waCcsICc3LjUnLCAnLW50JywgJy1tYScsICcyMDAnLCAnLWltYWUnLCAnPGluZmlsZS5tYWU+JywgJy1vbWFlJywgJzxvdXRmaWxlLm1hZT4n

> <r_lp_tautomer_probability>
1

> <r_epik_Ionization_Penalty>
  0.0000

> <r_epik_Ionization_Penalty_Charging>
  0.0000

> <r_epik_Ionization_Penalty_Neutral>
  0.0000

> <r_epik_State_Penalty>
 -0.0000

> <r_epik_Charging_Adjusted_Penalty>
0

> <i_epik_Tot_Q>
0

> <i_epik_Tot_abs_Q>
0

> <s_epik_Chemistry_Notes>
This compound has an ester and may undergo hydrolysis at high or low pH.

> <s_lp_Force_Field>
OPLS3e

> <r_lp_Energy>
97.323495

> <b_lp_Chiralities_Consistent>
1

> <s_lp_Variant>
sdf/actives_sanitized.sdf:213-1

$$$$
sdf/actives_sanitized.sdf:214
                    3D
 Schrodinger Suite 2020-1.
 67 71  0  0  1  0            999 V2000
   -5.2517    1.7827   -0.9587 C   0  0  0  0  0  0
   -4.1307    0.9669   -1.6345 C   0  0  2  0  0  0
   -2.7443    1.6643   -1.5042 C   0  0  0  0  0  0
   -2.1046    1.5988   -0.0918 C   0  0  0  0  0  0
   -0.5548    1.4899   -0.0860 C   0  0  0  0  0  0
    0.0305    0.0429   -0.1804 C   0  0  2  0  0  0
    1.5116    0.0003   -0.0817 N   0  0  0  0  0  0
    2.3257    1.0229   -0.8047 C   0  0  0  0  0  0
    3.7478    0.5207   -1.1731 C   0  0  0  0  0  0
    4.3574   -0.1710    0.0334 C   0  0  0  0  0  0
    3.5364   -0.9009    0.8147 C   0  0  0  0  0  0
    2.1023   -1.0025    0.6477 C   0  0  0  0  0  0
    1.4905   -1.9519    1.1406 O   0  0  0  0  0  0
    5.8297   -0.2914    0.1802 C   0  0  0  0  0  0
    6.4427   -0.0310    1.4183 C   0  0  0  0  0  0
    5.7037    0.3388    2.4913 F   0  0  0  0  0  0
    7.8260   -0.1328    1.5624 C   0  0  0  0  0  0
    8.6187   -0.4922    0.4761 C   0  0  0  0  0  0
    8.0293   -0.7533   -0.7592 C   0  0  0  0  0  0
    9.0273   -1.2007   -2.0973 Cl  0  0  0  0  0  0
    6.6422   -0.6549   -0.9088 C   0  0  0  0  0  0
    6.0908   -0.9317   -2.1149 F   0  0  0  0  0  0
   -0.5230   -0.7295   -1.3822 C   0  0  0  0  0  0
   -1.7279   -1.4229   -1.2525 C   0  0  0  0  0  0
   -2.3703   -1.8952   -2.3999 C   0  0  0  0  0  0
   -1.7143   -1.7762   -3.6310 C   0  0  0  0  0  0
   -0.4626   -1.1581   -3.6701 C   0  0  0  0  0  0
    0.1284   -0.6195   -2.5730 N   0  0  0  0  0  0
   -3.7547   -2.4199   -2.2949 C   0  0  0  0  0  0
   -3.9778   -3.6039   -1.5850 C   0  0  0  0  0  0
   -5.2612   -4.1468   -1.4186 C   0  0  0  0  0  0
   -5.4074   -5.4234   -0.6398 C   0  0  0  0  0  0
   -6.4192   -5.5614    0.0845 O   0  0  0  0  0  0
   -4.4942   -6.2732   -0.7480 O   0  5  0  0  0  0
   -6.3558   -3.4646   -1.9977 C   0  0  0  0  0  0
   -7.6751   -3.9257   -1.9206 N   0  0  0  0  0  0
   -6.1439   -2.2782   -2.7018 C   0  0  0  0  0  0
   -4.8633   -1.7421   -2.8399 C   0  0  0  0  0  0
   -4.7528   -0.5539   -3.5800 N   0  0  0  0  0  0
   -4.4687    0.6875   -3.1236 C   0  0  0  0  0  0
   -4.4765    1.6326   -3.9119 O   0  0  0  0  0  0
   -6.2122    1.2691   -1.0247 H   0  0  0  0  0  0
   -5.3725    2.7652   -1.4178 H   0  0  0  0  0  0
   -5.0426    1.9369    0.1003 H   0  0  0  0  0  0
   -4.0807    0.0198   -1.1018 H   0  0  0  0  0  0
   -2.0560    1.2266   -2.2265 H   0  0  0  0  0  0
   -2.8192    2.7073   -1.8171 H   0  0  0  0  0  0
   -2.4003    2.4968    0.4525 H   0  0  0  0  0  0
   -2.5206    0.7736    0.4872 H   0  0  0  0  0  0
   -0.1543    2.1295   -0.8729 H   0  0  0  0  0  0
   -0.1986    1.9251    0.8489 H   0  0  0  0  0  0
   -0.3641   -0.4664    0.7014 H   0  0  0  0  0  0
    1.7872    1.4611   -1.6447 H   0  0  0  0  0  0
    2.4590    1.8413   -0.0959 H   0  0  0  0  0  0
    3.6439   -0.1971   -1.9881 H   0  0  0  0  0  0
    4.3718    1.3417   -1.5281 H   0  0  0  0  0  0
    3.9651   -1.4915    1.6123 H   0  0  0  0  0  0
    8.2860    0.0720    2.5180 H   0  0  0  0  0  0
    9.6898   -0.5671    0.5947 H   0  0  0  0  0  0
   -2.2231   -1.4791   -0.2937 H   0  0  0  0  0  0
   -2.1743   -2.1359   -4.5398 H   0  0  0  0  0  0
    0.0684   -1.0496   -4.6041 H   0  0  0  0  0  0
   -3.1244   -4.1076   -1.1504 H   0  0  0  0  0  0
   -8.4224   -3.3607   -2.2962 H   0  0  0  0  0  0
   -7.8709   -4.7345   -1.3465 H   0  0  0  0  0  0
   -6.9862   -1.7625   -3.1435 H   0  0  0  0  0  0
   -5.0276   -0.6265   -4.5485 H   0  0  0  0  0  0
  1  2  1  0  0  0
  1 42  1  0  0  0
  1 43  1  0  0  0
  1 44  1  0  0  0
  2  3  1  0  0  0
  2 40  1  0  0  0
  2 45  1  0  0  0
  3  4  1  0  0  0
  3 46  1  0  0  0
  3 47  1  0  0  0
  4  5  1  0  0  0
  4 48  1  0  0  0
  4 49  1  0  0  0
  5  6  1  0  0  0
  5 50  1  0  0  0
  5 51  1  0  0  0
  6  7  1  0  0  0
  6 23  1  0  0  0
  6 52  1  0  0  0
  7  8  1  0  0  0
  7 12  1  0  0  0
  8  9  1  0  0  0
  8 53  1  0  0  0
  8 54  1  0  0  0
  9 10  1  0  0  0
  9 55  1  0  0  0
  9 56  1  0  0  0
 10 11  2  0  0  0
 10 14  1  0  0  0
 11 12  1  0  0  0
 11 57  1  0  0  0
 12 13  2  0  0  0
 14 15  2  0  0  0
 14 21  1  0  0  0
 15 16  1  0  0  0
 15 17  1  0  0  0
 17 18  2  0  0  0
 17 58  1  0  0  0
 18 19  1  0  0  0
 18 59  1  0  0  0
 19 20  1  0  0  0
 19 21  2  0  0  0
 21 22  1  0  0  0
 23 24  1  0  0  0
 23 28  2  0  0  0
 24 25  2  0  0  0
 24 60  1  0  0  0
 25 26  1  0  0  0
 25 29  1  0  0  0
 26 27  2  0  0  0
 26 61  1  0  0  0
 27 28  1  0  0  0
 27 62  1  0  0  0
 29 30  2  0  0  0
 29 38  1  0  0  0
 30 31  1  0  0  0
 30 63  1  0  0  0
 31 32  1  0  0  0
 31 35  2  0  0  0
 32 33  2  0  0  0
 32 34  1  0  0  0
 35 36  1  0  0  0
 35 37  1  0  0  0
 36 64  1  0  0  0
 36 65  1  0  0  0
 37 38  2  0  0  0
 37 66  1  0  0  0
 38 39  1  0  0  0
 39 40  1  0  0  0
 39 67  1  0  0  0
 40 41  2  0  0  0
M  CHG  1  34  -1
M  END
> <chembl_id>
CHEMBL4115159

> <chembl_pref_name>
None

> <i_m_ct_stereo_status>
1

> <s_m_source_file>
sdf/actives_sanitized.sdf

> <i_m_source_file_index>
214

> <i_lp_mmshare_version>
49012

> <i_f3d_flags>
0

> <s_epik_input>
bjFbY0hdW2NIXWMoW2NIXWMxMiljM2MoW2NIXWMoW05IMl0pYyhbY0hdMylDKD1PKVtPSF0pW05IXUMoPU8pW0NASF0oW0NIM10pW0NIMl1bQ0gyXVtDSDJdW0NAQEhdMk40W0NIMl1bQ0gyXUMoPVtDSF1DND1PKWM1YyhGKVtjSF1bY0hdYyhDbCljNUY=

> <s_epik_cmdline>
J2VwaWtfcHl0aG9uJywgJy1waHQnLCAnMC41JywgJy1waCcsICc3LjUnLCAnLW50JywgJy1tYScsICcyMDAnLCAnLWltYWUnLCAnPGluZmlsZS5tYWU+JywgJy1vbWFlJywgJzxvdXRmaWxlLm1hZT4n

> <r_lp_tautomer_probability>
1

> <r_epik_Ionization_Penalty>
  0.0007

> <r_epik_Ionization_Penalty_Charging>
  0.0003

> <r_epik_Ionization_Penalty_Neutral>
  0.0005

> <r_epik_State_Penalty>
 -0.0000

> <r_epik_Charging_Adjusted_Penalty>
0.000258345026185299

> <i_epik_Tot_Q>
-1

> <i_epik_Tot_abs_Q>
1

> <s_lp_Force_Field>
OPLS3e

> <r_lp_Energy>
99.652426

> <b_lp_Chiralities_Consistent>
1

> <s_lp_Variant>
sdf/actives_sanitized.sdf:214-1

$$$$
sdf/actives_sanitized.sdf:215
                    3D
 Schrodinger Suite 2020-1.
 64 68  0  0  1  0            999 V2000
   -5.3011   -0.0664    1.3363 C   0  0  0  0  0  0
   -4.2272    0.0554    0.2351 C   0  0  2  0  0  0
   -3.0307    0.9503    0.7184 C   0  0  0  0  0  0
   -2.1586    1.6920   -0.3391 C   0  0  0  0  0  0
   -0.6179    1.5755   -0.1694 C   0  0  0  0  0  0
    0.0125    0.1642   -0.4108 C   0  0  2  0  0  0
    1.5063    0.1088   -0.3704 N   0  0  0  0  0  0
    2.2893    1.2908    0.1104 C   0  0  0  0  0  0
    3.7548    1.2884   -0.3972 C   0  0  0  0  0  0
    4.3532   -0.0796   -0.1420 C   0  0  0  0  0  0
    3.5530   -1.1573   -0.2307 C   0  0  0  0  0  0
    2.1279   -1.1187   -0.4851 C   0  0  0  0  0  0
    1.5596   -2.1621   -0.8119 O   0  0  0  0  0  0
    5.8224   -0.2503   -0.0400 C   0  0  0  0  0  0
    6.3694   -0.5443    1.2202 C   0  0  0  0  0  0
    5.5570   -0.6873    2.2962 F   0  0  0  0  0  0
    7.7494   -0.6898    1.3820 C   0  0  0  0  0  0
    8.4187   -1.0545    2.9329 Cl  0  0  0  0  0  0
    8.5978   -0.5381    0.2888 C   0  0  0  0  0  0
    8.0726   -0.2426   -0.9661 C   0  0  0  0  0  0
    6.6927   -0.0954   -1.1427 C   0  0  0  0  0  0
    6.2081    0.2009   -2.4894 C   0  0  0  0  0  0
    5.8239    0.4355   -3.5555 N   0  0  0  0  0  0
   -0.6401   -0.4852   -1.6373 C   0  0  0  0  0  0
   -1.6846   -1.3875   -1.4477 C   0  0  0  0  0  0
   -2.5133   -1.7020   -2.5253 C   0  0  0  0  0  0
   -2.1754   -1.2186   -3.7947 C   0  0  0  0  0  0
   -1.0474   -0.4032   -3.9244 C   0  0  0  0  0  0
   -0.2948   -0.0089   -2.8643 N   0  0  0  0  0  0
   -3.7666   -2.4526   -2.2796 C   0  0  0  0  0  0
   -3.7271   -3.8511   -2.2437 C   0  0  0  0  0  0
   -4.8785   -4.5927   -1.9819 C   0  0  0  0  0  0
   -4.8175   -5.9436   -1.9523 F   0  0  0  0  0  0
   -6.0892   -3.9417   -1.7508 C   0  0  0  0  0  0
   -7.2088   -4.6579   -1.5000 F   0  0  0  0  0  0
   -6.1478   -2.5497   -1.7805 C   0  0  0  0  0  0
   -4.9948   -1.7994   -2.0326 C   0  0  0  0  0  0
   -5.1365   -0.4028   -2.0899 N   0  0  0  0  0  0
   -4.8883    0.4869   -1.1013 C   0  0  0  0  0  0
   -5.1912    1.6689   -1.2578 O   0  0  0  0  0  0
   -6.0882   -0.7679    1.0544 H   0  0  0  0  0  0
   -5.7778    0.8927    1.5455 H   0  0  0  0  0  0
   -4.8674   -0.4293    2.2689 H   0  0  0  0  0  0
   -3.8359   -0.9502    0.1162 H   0  0  0  0  0  0
   -3.4145    1.7153    1.3960 H   0  0  0  0  0  0
   -2.3857    0.3320    1.3441 H   0  0  0  0  0  0
   -2.4172    1.3963   -1.3541 H   0  0  0  0  0  0
   -2.4217    2.7505   -0.3061 H   0  0  0  0  0  0
   -0.1701    2.2821   -0.8699 H   0  0  0  0  0  0
   -0.3540    1.9272    0.8290 H   0  0  0  0  0  0
   -0.2900   -0.4228    0.4585 H   0  0  0  0  0  0
    1.7861    2.2486   -0.0028 H   0  0  0  0  0  0
    2.3768    1.1470    1.1888 H   0  0  0  0  0  0
    3.7472    1.4946   -1.4682 H   0  0  0  0  0  0
    4.3398    2.0738    0.0826 H   0  0  0  0  0  0
    3.9978   -2.1381   -0.1327 H   0  0  0  0  0  0
    9.6656   -0.6488    0.4107 H   0  0  0  0  0  0
    8.7528   -0.1315   -1.7997 H   0  0  0  0  0  0
   -1.9200   -1.7365   -0.4536 H   0  0  0  0  0  0
   -2.7846   -1.4500   -4.6564 H   0  0  0  0  0  0
   -0.7598   -0.0121   -4.8892 H   0  0  0  0  0  0
   -2.7946   -4.3693   -2.4169 H   0  0  0  0  0  0
   -7.0940   -2.0570   -1.6061 H   0  0  0  0  0  0
   -5.5738   -0.0447   -2.9266 H   0  0  0  0  0  0
  1  2  1  0  0  0
  1 41  1  0  0  0
  1 42  1  0  0  0
  1 43  1  0  0  0
  2  3  1  0  0  0
  2 39  1  0  0  0
  2 44  1  0  0  0
  3  4  1  0  0  0
  3 45  1  0  0  0
  3 46  1  0  0  0
  4  5  1  0  0  0
  4 47  1  0  0  0
  4 48  1  0  0  0
  5  6  1  0  0  0
  5 49  1  0  0  0
  5 50  1  0  0  0
  6  7  1  0  0  0
  6 24  1  0  0  0
  6 51  1  0  0  0
  7  8  1  0  0  0
  7 12  1  0  0  0
  8  9  1  0  0  0
  8 52  1  0  0  0
  8 53  1  0  0  0
  9 10  1  0  0  0
  9 54  1  0  0  0
  9 55  1  0  0  0
 10 11  2  0  0  0
 10 14  1  0  0  0
 11 12  1  0  0  0
 11 56  1  0  0  0
 12 13  2  0  0  0
 14 15  2  0  0  0
 14 21  1  0  0  0
 15 16  1  0  0  0
 15 17  1  0  0  0
 17 18  1  0  0  0
 17 19  2  0  0  0
 19 20  1  0  0  0
 19 57  1  0  0  0
 20 21  2  0  0  0
 20 58  1  0  0  0
 21 22  1  0  0  0
 22 23  3  0  0  0
 24 25  1  0  0  0
 24 29  2  0  0  0
 25 26  2  0  0  0
 25 59  1  0  0  0
 26 27  1  0  0  0
 26 30  1  0  0  0
 27 28  2  0  0  0
 27 60  1  0  0  0
 28 29  1  0  0  0
 28 61  1  0  0  0
 30 31  2  0  0  0
 30 37  1  0  0  0
 31 32  1  0  0  0
 31 62  1  0  0  0
 32 33  1  0  0  0
 32 34  2  0  0  0
 34 35  1  0  0  0
 34 36  1  0  0  0
 36 37  2  0  0  0
 36 63  1  0  0  0
 37 38  1  0  0  0
 38 39  1  0  0  0
 38 64  1  0  0  0
 39 40  2  0  0  0
M  END
> <chembl_id>
CHEMBL4109163

> <chembl_pref_name>
None

> <i_m_ct_stereo_status>
1

> <s_m_source_file>
sdf/actives_sanitized.sdf

> <i_m_source_file_index>
215

> <i_lp_mmshare_version>
49012

> <i_f3d_flags>
0

> <s_epik_input>
bjFbY0hdW2NIXWMoW2NIXWMxMiljM2MoW2NIXWMoRiljKEYpW2NIXTMpW05IXUMoPU8pW0NASF0oW0NIM10pW0NIMl1bQ0gyXVtDSDJdW0NAQEhdMk40W0NIMl1bQ0gyXUMoPVtDSF1DND1PKWM1YyhGKWMoQ2wpW2NIXVtjSF1jNUMjTg==

> <s_epik_cmdline>
J2VwaWtfcHl0aG9uJywgJy1waHQnLCAnMC41JywgJy1waCcsICc3LjUnLCAnLW50JywgJy1tYScsICcyMDAnLCAnLWltYWUnLCAnPGluZmlsZS5tYWU+JywgJy1vbWFlJywgJzxvdXRmaWxlLm1hZT4n

> <r_lp_tautomer_probability>
1

> <r_epik_Ionization_Penalty>
  0.0001

> <r_epik_Ionization_Penalty_Charging>
  0.0000

> <r_epik_Ionization_Penalty_Neutral>
  0.0001

> <r_epik_State_Penalty>
 -0.0000

> <r_epik_Charging_Adjusted_Penalty>
0

> <i_epik_Tot_Q>
0

> <i_epik_Tot_abs_Q>
0

> <s_lp_Force_Field>
OPLS3e

> <r_lp_Energy>
96.031881

> <b_lp_Chiralities_Consistent>
1

> <s_lp_Variant>
sdf/actives_sanitized.sdf:215-1

$$$$
sdf/actives_sanitized.sdf:216
                    3D
 Schrodinger Suite 2020-1.
 62 66  0  0  1  0            999 V2000
   -4.4865    2.9421   -2.2499 C   0  0  0  0  0  0
   -3.2860    1.9806   -2.4076 C   0  0  2  0  0  0
   -3.0079    1.2012   -1.0747 C   0  0  0  0  0  0
   -2.0345    1.7665    0.0055 C   0  0  0  0  0  0
   -0.4932    1.6160   -0.1744 C   0  0  0  0  0  0
    0.0973    0.1673   -0.1506 C   0  0  2  0  0  0
    1.5691    0.1416    0.0118 N   0  0  0  0  0  0
    2.4186    0.9048   -0.9487 C   0  0  0  0  0  0
    3.8165    1.2375   -0.3636 C   0  0  0  0  0  0
    4.4106   -0.0266    0.2368 C   0  0  0  0  0  0
    3.5673   -0.8865    0.8441 C   0  0  0  0  0  0
    2.1261   -0.7545    0.8928 C   0  0  0  0  0  0
    1.4829   -1.4015    1.7210 O   0  0  0  0  0  0
    5.8794   -0.1743    0.4085 C   0  0  0  0  0  0
    6.6700    0.8957    0.8647 C   0  0  0  0  0  0
    6.1135    2.0873    1.1852 F   0  0  0  0  0  0
    8.0485    0.7470    1.0156 C   0  0  0  0  0  0
    8.6607   -0.4664    0.7161 C   0  0  0  0  0  0
    7.8954   -1.5374    0.2607 C   0  0  0  0  0  0
    8.6705   -3.0359   -0.1141 Cl  0  0  0  0  0  0
    6.5132   -1.3939    0.1050 C   0  0  0  0  0  0
    5.7907   -2.4423   -0.3601 F   0  0  0  0  0  0
   -0.3460   -0.6857   -1.3396 C   0  0  0  0  0  0
   -0.4431   -0.1283   -2.6176 C   0  0  0  0  0  0
   -1.2668   -0.7457   -3.5642 C   0  0  0  0  0  0
   -1.7966   -2.0120   -3.2608 C   0  0  0  0  0  0
   -1.5399   -2.5669   -2.0060 C   0  0  0  0  0  0
   -0.8601   -1.9066   -1.0354 N   0  0  0  0  0  0
   -1.6479   -0.0566   -4.7472 N   0  0  0  0  0  0
   -1.9971   -0.7699   -5.8364 N   0  0  0  0  0  0
   -2.3531    0.0827   -6.7780 C   0  0  0  0  0  0
   -2.2293    1.3927   -6.2935 C   0  0  0  0  0  0
   -1.7958    1.3047   -4.9844 C   0  0  0  0  0  0
   -1.4543    2.3520   -4.1441 N   0  0  0  0  0  0
   -2.0764    2.7427   -3.0090 C   0  0  0  0  0  0
   -1.6743    3.7542   -2.4346 O   0  0  0  0  0  0
   -2.7975   -0.3160   -8.1198 C   0  0  0  0  0  0
   -3.1040    0.6047   -8.9108 O   0  0  0  0  0  0
   -2.8393   -1.5409   -8.3774 O   0  5  0  0  0  0
   -4.7239    3.4472   -3.1877 H   0  0  0  0  0  0
   -4.2937    3.7129   -1.5021 H   0  0  0  0  0  0
   -5.3856    2.4055   -1.9447 H   0  0  0  0  0  0
   -3.6107    1.2357   -3.1342 H   0  0  0  0  0  0
   -3.9696    1.0737   -0.5753 H   0  0  0  0  0  0
   -2.7575    0.1716   -1.3055 H   0  0  0  0  0  0
   -2.2662    2.8222    0.1521 H   0  0  0  0  0  0
   -2.2892    1.2947    0.9558 H   0  0  0  0  0  0
   -0.1670    2.1589   -1.0568 H   0  0  0  0  0  0
   -0.0383    2.1606    0.6544 H   0  0  0  0  0  0
   -0.3604   -0.2827    0.7329 H   0  0  0  0  0  0
    2.6191    0.2070   -1.7634 H   0  0  0  0  0  0
    1.9072    1.7436   -1.4182 H   0  0  0  0  0  0
    4.4685    1.6608   -1.1284 H   0  0  0  0  0  0
    3.6850    1.9896    0.4153 H   0  0  0  0  0  0
    3.9811   -1.7355    1.3704 H   0  0  0  0  0  0
    8.6449    1.5751    1.3700 H   0  0  0  0  0  0
    9.7291   -0.5729    0.8363 H   0  0  0  0  0  0
    0.0017    0.8332   -2.8109 H   0  0  0  0  0  0
   -2.4237   -2.5445   -3.9610 H   0  0  0  0  0  0
   -1.9395   -3.5344   -1.7401 H   0  0  0  0  0  0
   -2.4302    2.3014   -6.8428 H   0  0  0  0  0  0
   -0.7319    2.9648   -4.4933 H   0  0  0  0  0  0
  1  2  1  0  0  0
  1 40  1  0  0  0
  1 41  1  0  0  0
  1 42  1  0  0  0
  2  3  1  0  0  0
  2 35  1  0  0  0
  2 43  1  0  0  0
  3  4  1  0  0  0
  3 44  1  0  0  0
  3 45  1  0  0  0
  4  5  1  0  0  0
  4 46  1  0  0  0
  4 47  1  0  0  0
  5  6  1  0  0  0
  5 48  1  0  0  0
  5 49  1  0  0  0
  6  7  1  0  0  0
  6 23  1  0  0  0
  6 50  1  0  0  0
  7  8  1  0  0  0
  7 12  1  0  0  0
  8  9  1  0  0  0
  8 51  1  0  0  0
  8 52  1  0  0  0
  9 10  1  0  0  0
  9 53  1  0  0  0
  9 54  1  0  0  0
 10 11  2  0  0  0
 10 14  1  0  0  0
 11 12  1  0  0  0
 11 55  1  0  0  0
 12 13  2  0  0  0
 14 15  2  0  0  0
 14 21  1  0  0  0
 15 16  1  0  0  0
 15 17  1  0  0  0
 17 18  2  0  0  0
 17 56  1  0  0  0
 18 19  1  0  0  0
 18 57  1  0  0  0
 19 20  1  0  0  0
 19 21  2  0  0  0
 21 22  1  0  0  0
 23 24  1  0  0  0
 23 28  2  0  0  0
 24 25  2  0  0  0
 24 58  1  0  0  0
 25 26  1  0  0  0
 25 29  1  0  0  0
 26 27  2  0  0  0
 26 59  1  0  0  0
 27 28  1  0  0  0
 27 60  1  0  0  0
 29 30  1  0  0  0
 29 33  1  0  0  0
 30 31  2  0  0  0
 31 32  1  0  0  0
 31 37  1  0  0  0
 32 33  2  0  0  0
 32 61  1  0  0  0
 33 34  1  0  0  0
 34 35  1  0  0  0
 34 62  1  0  0  0
 35 36  2  0  0  0
 37 38  2  0  0  0
 37 39  1  0  0  0
M  CHG  1  39  -1
M  END
> <chembl_id>
CHEMBL4110112

> <chembl_pref_name>
None

> <i_m_ct_stereo_status>
1

> <s_m_source_file>
sdf/actives_sanitized.sdf

> <i_m_source_file_index>
216

> <i_lp_mmshare_version>
49012

> <i_f3d_flags>
0

> <s_epik_input>
bjFbY0hdW2NIXWMoW2NIXWMxMiluM2MoW2NIXWMobjMpQyg9TylbT0hdKVtOSF1DKD1PKVtDQEhdKFtDSDNdKVtDSDJdW0NIMl1bQ0gyXVtDQEBIXTJONFtDSDJdW0NIMl1DKD1bQ0hdQzQ9TyljNWMoRilbY0hdW2NIXWMoQ2wpYzVG

> <s_epik_cmdline>
J2VwaWtfcHl0aG9uJywgJy1waHQnLCAnMC41JywgJy1waCcsICc3LjUnLCAnLW50JywgJy1tYScsICcyMDAnLCAnLWltYWUnLCAnPGluZmlsZS5tYWU+JywgJy1vbWFlJywgJzxvdXRmaWxlLm1hZT4n

> <r_lp_tautomer_probability>
1

> <r_epik_Ionization_Penalty>
  0.0000

> <r_epik_Ionization_Penalty_Charging>
  0.0000

> <r_epik_Ionization_Penalty_Neutral>
  0.0000

> <r_epik_State_Penalty>
 -0.0000

> <r_epik_Charging_Adjusted_Penalty>
1.4594403713975e-05

> <i_epik_Tot_Q>
-1

> <i_epik_Tot_abs_Q>
1

> <s_lp_Force_Field>
OPLS3e

> <r_lp_Energy>
98.734095

> <b_lp_Chiralities_Consistent>
1

> <s_lp_Variant>
sdf/actives_sanitized.sdf:216-1

$$$$
sdf/actives_sanitized.sdf:217
                    3D
 Schrodinger Suite 2020-1.
 61 66  0  0  1  0            999 V2000
   -0.5137    1.6393    0.0319 C   0  0  0  0  0  0
    0.0238    2.5515   -0.8939 C   0  0  0  0  0  0
   -0.4223    3.8711   -0.9521 C   0  0  0  0  0  0
   -1.4306    4.3033   -0.0947 C   0  0  0  0  0  0
   -1.9948    3.4126    0.8160 C   0  0  0  0  0  0
   -1.5457    2.0925    0.8735 C   0  0  0  0  0  0
   -0.4940   -5.4578   -3.5793 C   0  0  0  0  0  0
   -0.2803   -5.4229   -2.2021 C   0  0  0  0  0  0
   -0.7219   -3.0328   -3.6128 C   0  0  0  0  0  0
   -0.7131   -4.2650   -4.2726 C   0  0  0  0  0  0
   -0.5044   -2.9928   -2.2229 C   0  0  0  0  0  0
   -0.2899   -4.2125   -1.5600 N   0  0  0  0  0  0
   -0.1019   -4.0463   -0.2330 N   0  0  0  0  0  0
   -0.4325   -2.0164   -1.1988 C   0  0  0  0  0  0
   -0.1850   -2.7484   -0.0267 C   0  0  0  0  0  0
   -0.0259   -2.1060    1.3432 C   0  0  0  0  0  0
   -0.5395   -0.6457    1.2835 C   0  0  0  0  0  0
   -0.0177    0.1617    0.0443 C   0  0  1  0  0  0
   -0.6143   -0.5031   -1.2381 C   0  0  0  0  0  0
    1.4625    0.1461   -0.0255 N   0  0  0  0  0  0
    2.3272    0.6844    0.8587 C   0  0  0  0  0  0
    3.7778    0.4231    0.5548 C   0  0  0  0  0  0
    2.0038    1.3605    1.8353 O   0  0  0  0  0  0
    4.4710   -0.6105    1.2144 C   0  0  0  0  0  0
    5.8173   -0.8421    0.9320 C   0  0  0  0  0  0
    6.5036   -0.0572   -0.0032 C   0  0  0  0  0  0
    5.8128    0.9690   -0.6571 C   0  0  0  0  0  0
    4.4666    1.2154   -0.3849 C   0  0  0  0  0  0
    3.7033    2.5180   -1.2395 Cl  0  0  0  0  0  0
    7.8759   -0.2866   -0.2819 N   0  0  0  0  0  0
    8.7884    0.5156   -0.9225 C   0  0  0  0  0  0
    9.9623   -0.0585   -0.9715 N   0  0  0  0  0  0
    9.7407   -1.2032   -0.3451 C   0  0  0  0  0  0
    8.5142   -1.4082    0.0877 N   0  0  0  0  0  0
   10.8333   -2.2324   -0.1580 C   0  0  0  0  0  0
   -0.4840   -6.7872   -4.3110 C   0  0  0  0  0  0
    3.7164   -1.6287    2.3983 Cl  0  0  0  0  0  0
   -3.2547    3.9412    1.8708 Cl  0  0  0  0  0  0
    0.7965    2.2367   -1.5797 H   0  0  0  0  0  0
    0.0107    4.5567   -1.6654 H   0  0  0  0  0  0
   -1.7771    5.3253   -0.1429 H   0  0  0  0  0  0
   -2.0159    1.4359    1.5880 H   0  0  0  0  0  0
   -0.1055   -6.3042   -1.6008 H   0  0  0  0  0  0
   -0.8935   -2.1223   -4.1676 H   0  0  0  0  0  0
   -0.8802   -4.2865   -5.3400 H   0  0  0  0  0  0
   -0.5690   -2.6605    2.1093 H   0  0  0  0  0  0
    1.0228   -2.1123    1.6357 H   0  0  0  0  0  0
   -1.6296   -0.6945    1.2529 H   0  0  0  0  0  0
   -0.2929   -0.1343    2.2151 H   0  0  0  0  0  0
   -0.1482   -0.0896   -2.1342 H   0  0  0  0  0  0
   -1.6794   -0.2815   -1.3277 H   0  0  0  0  0  0
    1.8426   -0.5792   -0.6159 H   0  0  0  0  0  0
    6.3267   -1.6376    1.4572 H   0  0  0  0  0  0
    6.3116    1.5889   -1.3873 H   0  0  0  0  0  0
    8.5204    1.4876   -1.3085 H   0  0  0  0  0  0
   10.4650   -3.2134    0.1453 H   0  0  0  0  0  0
   11.6103   -1.8886    0.5253 H   0  0  0  0  0  0
   11.3577   -2.3946   -1.1002 H   0  0  0  0  0  0
   -0.6122   -6.6668   -5.3875 H   0  0  0  0  0  0
   -1.2808   -7.4304   -3.9361 H   0  0  0  0  0  0
    0.4607   -7.3037   -4.1376 H   0  0  0  0  0  0
  1  2  2  0  0  0
  1  6  1  0  0  0
  1 18  1  0  0  0
  2  3  1  0  0  0
  2 39  1  0  0  0
  3  4  2  0  0  0
  3 40  1  0  0  0
  4  5  1  0  0  0
  4 41  1  0  0  0
  5  6  2  0  0  0
  5 38  1  0  0  0
  6 42  1  0  0  0
  7  8  2  0  0  0
  7 10  1  0  0  0
  7 36  1  0  0  0
  8 12  1  0  0  0
  8 43  1  0  0  0
  9 11  1  0  0  0
  9 10  2  0  0  0
  9 44  1  0  0  0
 10 45  1  0  0  0
 11 12  1  0  0  0
 11 14  2  0  0  0
 12 13  1  0  0  0
 13 15  2  0  0  0
 14 15  1  0  0  0
 14 19  1  0  0  0
 15 16  1  0  0  0
 16 17  1  0  0  0
 16 46  1  0  0  0
 16 47  1  0  0  0
 17 18  1  0  0  0
 17 48  1  0  0  0
 17 49  1  0  0  0
 18 19  1  0  0  0
 18 20  1  0  0  0
 19 50  1  0  0  0
 19 51  1  0  0  0
 20 21  1  0  0  0
 20 52  1  0  0  0
 21 22  1  0  0  0
 21 23  2  0  0  0
 22 24  2  0  0  0
 22 28  1  0  0  0
 24 25  1  0  0  0
 24 37  1  0  0  0
 25 26  2  0  0  0
 25 53  1  0  0  0
 26 27  1  0  0  0
 26 30  1  0  0  0
 27 28  2  0  0  0
 27 54  1  0  0  0
 28 29  1  0  0  0
 30 31  1  0  0  0
 30 34  1  0  0  0
 31 32  2  0  0  0
 31 55  1  0  0  0
 32 33  1  0  0  0
 33 34  2  0  0  0
 33 35  1  0  0  0
 35 56  1  0  0  0
 35 57  1  0  0  0
 35 58  1  0  0  0
 36 59  1  0  0  0
 36 60  1  0  0  0
 36 61  1  0  0  0
M  END
> <chembl_id>
CHEMBL3628949

> <chembl_pref_name>
None

> <i_m_ct_stereo_status>
1

> <s_m_source_file>
sdf/actives_sanitized.sdf

> <i_m_source_file_index>
217

> <i_lp_mmshare_version>
49012

> <i_f3d_flags>
0

> <s_epik_input>
W2NIXTFbY0hdYyhbQ0gzXSlbY0hdbihjMTIpbmMzYzJbQ0gyXVtDQF0oW0NIMl1bQ0gyXTMpKGM0W2NIXVtjSF1bY0hdYyhDbClbY0hdNClbTkhdQyg9TyljNWMoQ2wpW2NIXWMoW2NIXWM1Q2wpLW42W2NIXW5jKG42KVtDSDNd

> <s_epik_cmdline>
J2VwaWtfcHl0aG9uJywgJy1waHQnLCAnMC41JywgJy1waCcsICc3LjUnLCAnLW50JywgJy1tYScsICcyMDAnLCAnLWltYWUnLCAnPGluZmlsZS5tYWU+JywgJy1vbWFlJywgJzxvdXRmaWxlLm1hZT4n

> <r_lp_tautomer_probability>
1

> <r_epik_Ionization_Penalty>
  0.0001

> <r_epik_Ionization_Penalty_Charging>
  0.0000

> <r_epik_Ionization_Penalty_Neutral>
  0.0001

> <r_epik_State_Penalty>
 -0.0000

> <r_epik_Charging_Adjusted_Penalty>
0

> <i_epik_Tot_Q>
0

> <i_epik_Tot_abs_Q>
0

> <s_lp_Force_Field>
OPLS3e

> <r_lp_Energy>
38.25442

> <b_lp_Chiralities_Consistent>
1

> <s_lp_Variant>
sdf/actives_sanitized.sdf:217-1

$$$$
sdf/actives_sanitized.sdf:218
                    3D
 Schrodinger Suite 2020-1.
 66 72  0  0  1  0            999 V2000
   -0.6450    1.6533    0.0296 C   0  0  0  0  0  0
   -1.6846    2.1653   -0.7660 C   0  0  0  0  0  0
   -2.0495    3.5065   -0.6848 C   0  0  0  0  0  0
   -1.3891    4.3516    0.2008 C   0  0  0  0  0  0
   -0.3675    3.8650    1.0093 C   0  0  0  0  0  0
   -0.0042    2.5245    0.9274 C   0  0  0  0  0  0
   -0.1261   -5.0736   -3.9037 C   0  0  0  0  0  0
    0.0132   -5.2830   -2.5311 C   0  0  0  0  0  0
   -0.5840   -2.7037   -3.5597 C   0  0  0  0  0  0
   -0.4208   -3.8042   -4.3995 C   0  0  0  0  0  0
   -0.4376   -2.9187   -2.1824 C   0  0  0  0  0  0
   -0.1422   -4.2017   -1.6471 C   0  0  0  0  0  0
   -0.0630   -4.0669   -0.2213 C   0  0  0  0  0  0
   -0.5303   -2.0480   -1.1126 N   0  0  0  0  0  0
   -0.3346   -2.7368    0.0775 C   0  0  0  0  0  0
   -0.3666   -2.0136    1.4266 C   0  0  0  0  0  0
   -0.7823   -0.5282    1.2750 C   0  0  0  0  0  0
   -0.2285    0.1522   -0.0073 C   0  0  1  0  0  0
   -0.8863   -0.6274   -1.1968 C   0  0  0  0  0  0
    1.2499    0.0693   -0.0181 N   0  0  0  0  0  0
    2.0811    0.4780   -0.9957 C   0  0  0  0  0  0
    3.5298    0.1691   -0.7396 C   0  0  0  0  0  0
    1.7334    1.0728   -2.0156 O   0  0  0  0  0  0
    4.3781    1.1482   -0.1857 C   0  0  0  0  0  0
    5.7218    0.8561    0.0512 C   0  0  0  0  0  0
    6.2412   -0.4060   -0.2511 C   0  0  0  0  0  0
    5.4007   -1.3793   -0.7989 C   0  0  0  0  0  0
    4.0560   -1.1018   -1.0459 C   0  0  0  0  0  0
    3.0868   -2.3694   -1.7272 Cl  0  0  0  0  0  0
    7.6000   -0.6957   -0.0047 N   0  0  0  0  0  0
    0.0429   -6.2433   -4.8566 C   0  0  0  0  0  0
    3.8142    2.7359    0.2297 Cl  0  0  0  0  0  0
    8.6808    0.1588   -0.0045 C   0  0  0  0  0  0
    9.8016   -0.4619    0.2665 N   0  0  0  0  0  0
    9.4798   -1.8010    0.4637 N   0  0  0  0  0  0
    8.1853   -1.9060    0.2972 C   0  0  0  0  0  0
    0.2506   -5.1866    0.7499 C   0  0  0  0  0  0
    1.3177   -5.0184    1.8047 C   0  0  0  0  0  0
    1.5479   -5.9479    0.6304 C   0  0  0  0  0  0
   -2.2248    1.5475   -1.4650 H   0  0  0  0  0  0
   -2.8451    3.8898   -1.3067 H   0  0  0  0  0  0
   -1.6742    5.3915    0.2636 H   0  0  0  0  0  0
    0.1391    4.5231    1.6997 H   0  0  0  0  0  0
    0.7859    2.1629    1.5694 H   0  0  0  0  0  0
    0.2398   -6.2691   -2.1521 H   0  0  0  0  0  0
   -0.8097   -1.7296   -3.9677 H   0  0  0  0  0  0
   -0.5264   -3.6596   -5.4652 H   0  0  0  0  0  0
   -1.0369   -2.5176    2.1237 H   0  0  0  0  0  0
    0.6263   -2.0504    1.8753 H   0  0  0  0  0  0
   -1.8732   -0.4799    1.2635 H   0  0  0  0  0  0
   -0.4838    0.0180    2.1713 H   0  0  0  0  0  0
   -0.5776   -0.2210   -2.1605 H   0  0  0  0  0  0
   -1.9747   -0.5728   -1.1533 H   0  0  0  0  0  0
    1.6318   -0.6267    0.6052 H   0  0  0  0  0  0
    6.3554    1.6182    0.4818 H   0  0  0  0  0  0
    5.7870   -2.3582   -1.0442 H   0  0  0  0  0  0
   -0.1513   -5.9650   -5.8933 H   0  0  0  0  0  0
   -0.6425   -7.0477   -4.5884 H   0  0  0  0  0  0
    1.0555   -6.6417   -4.7868 H   0  0  0  0  0  0
    8.5591    1.2101   -0.2204 H   0  0  0  0  0  0
    7.5926   -2.8047    0.3835 H   0  0  0  0  0  0
   -0.6219   -5.7780    1.0291 H   0  0  0  0  0  0
    1.8805   -4.0859    1.8492 H   0  0  0  0  0  0
    1.1380   -5.4424    2.7928 H   0  0  0  0  0  0
    2.2556   -5.6560   -0.1462 H   0  0  0  0  0  0
    1.5317   -7.0257    0.7936 H   0  0  0  0  0  0
  1  2  2  0  0  0
  1  6  1  0  0  0
  1 18  1  0  0  0
  2  3  1  0  0  0
  2 40  1  0  0  0
  3  4  2  0  0  0
  3 41  1  0  0  0
  4  5  1  0  0  0
  4 42  1  0  0  0
  5  6  2  0  0  0
  5 43  1  0  0  0
  6 44  1  0  0  0
  7  8  2  0  0  0
  7 10  1  0  0  0
  7 31  1  0  0  0
  8 12  1  0  0  0
  8 45  1  0  0  0
  9 11  1  0  0  0
  9 10  2  0  0  0
  9 46  1  0  0  0
 10 47  1  0  0  0
 11 12  2  0  0  0
 11 14  1  0  0  0
 12 13  1  0  0  0
 13 15  2  0  0  0
 13 37  1  0  0  0
 14 15  1  0  0  0
 14 19  1  0  0  0
 15 16  1  0  0  0
 16 17  1  0  0  0
 16 48  1  0  0  0
 16 49  1  0  0  0
 17 18  1  0  0  0
 17 50  1  0  0  0
 17 51  1  0  0  0
 18 19  1  0  0  0
 18 20  1  0  0  0
 19 52  1  0  0  0
 19 53  1  0  0  0
 20 21  1  0  0  0
 20 54  1  0  0  0
 21 22  1  0  0  0
 21 23  2  0  0  0
 22 24  2  0  0  0
 22 28  1  0  0  0
 24 25  1  0  0  0
 24 32  1  0  0  0
 25 26  2  0  0  0
 25 55  1  0  0  0
 26 27  1  0  0  0
 26 30  1  0  0  0
 27 28  2  0  0  0
 27 56  1  0  0  0
 28 29  1  0  0  0
 30 33  1  0  0  0
 30 36  1  0  0  0
 31 57  1  0  0  0
 31 58  1  0  0  0
 31 59  1  0  0  0
 33 34  2  0  0  0
 33 60  1  0  0  0
 34 35  1  0  0  0
 35 36  2  0  0  0
 36 61  1  0  0  0
 37 38  1  0  0  0
 37 39  1  0  0  0
 37 62  1  0  0  0
 38 39  1  0  0  0
 38 63  1  0  0  0
 38 64  1  0  0  0
 39 65  1  0  0  0
 39 66  1  0  0  0
M  END
> <chembl_id>
CHEMBL3628958

> <chembl_pref_name>
None

> <i_m_ct_stereo_status>
1

> <s_m_source_file>
sdf/actives_sanitized.sdf

> <i_m_source_file_index>
218

> <i_lp_mmshare_version>
49012

> <i_f3d_flags>
0

> <s_epik_input>
W2NIXTFbY0hdYyhbQ0gzXSlbY0hdYyhjMTIpYyhbQ0hdM1tDSDJdW0NIMl0zKWM0bjJbQ0gyXVtDQF0oW0NIMl1bQ0gyXTQpKGM1W2NIXVtjSF1bY0hdW2NIXVtjSF01KVtOSF1DKD1PKWM2YyhDbClbY0hdYyhbY0hdYzZDbCktbjdbY0hdbm5bY0hdNw==

> <s_epik_cmdline>
J2VwaWtfcHl0aG9uJywgJy1waHQnLCAnMC41JywgJy1waCcsICc3LjUnLCAnLW50JywgJy1tYScsICcyMDAnLCAnLWltYWUnLCAnPGluZmlsZS5tYWU+JywgJy1vbWFlJywgJzxvdXRmaWxlLm1hZT4n

> <r_lp_tautomer_probability>
1

> <r_epik_Ionization_Penalty>
  0.0002

> <r_epik_Ionization_Penalty_Charging>
  0.0000

> <r_epik_Ionization_Penalty_Neutral>
  0.0002

> <r_epik_State_Penalty>
 -0.0000

> <r_epik_Charging_Adjusted_Penalty>
0

> <i_epik_Tot_Q>
0

> <i_epik_Tot_abs_Q>
0

> <s_lp_Force_Field>
OPLS3e

> <r_lp_Energy>
53.475791

> <b_lp_Chiralities_Consistent>
1

> <s_lp_Variant>
sdf/actives_sanitized.sdf:218-1

$$$$
sdf/actives_sanitized.sdf:219
                    3D
 Schrodinger Suite 2020-1.
 60 65  0  0  1  0            999 V2000
   -0.5572    1.6319   -0.0203 C   0  0  0  0  0  0
   -1.5411    2.1990    0.8079 C   0  0  0  0  0  0
   -1.9272    3.5272    0.6488 C   0  0  0  0  0  0
   -1.3457    4.3026   -0.3491 C   0  0  0  0  0  0
   -0.3842    3.7582   -1.1938 C   0  0  0  0  0  0
    0.0004    2.4304   -1.0335 C   0  0  0  0  0  0
   -0.3594   -5.1242   -3.7746 C   0  0  0  0  0  0
   -0.1805   -5.3329   -2.4068 C   0  0  0  0  0  0
   -0.6734   -2.7301   -3.4324 C   0  0  0  0  0  0
   -0.6009   -3.8430   -4.2690 C   0  0  0  0  0  0
   -0.4906   -2.9435   -2.0590 C   0  0  0  0  0  0
   -0.2479   -4.2395   -1.5252 C   0  0  0  0  0  0
   -0.1219   -4.0935   -0.1052 C   0  0  0  0  0  0
   -0.4968   -2.0577   -0.9947 N   0  0  0  0  0  0
   -0.3043   -2.7504    0.1963 C   0  0  0  0  0  0
   -0.2512   -2.0236    1.5414 C   0  0  0  0  0  0
   -0.6835   -0.5492    1.3917 C   0  0  0  0  0  0
   -0.1230    0.1409    0.1078 C   0  0  1  0  0  0
   -0.7654   -0.6140   -1.0938 C   0  0  0  0  0  0
    1.3549    0.0669    0.0289 N   0  0  0  0  0  0
    2.2463    0.5986    0.8889 C   0  0  0  0  0  0
    3.6835    0.3240    0.5400 C   0  0  0  0  0  0
    1.9569    1.2853    1.8685 O   0  0  0  0  0  0
    4.3927    1.2061   -0.2996 C   0  0  0  0  0  0
    5.7244    0.9451   -0.6245 C   0  0  0  0  0  0
    6.3724   -0.1879   -0.1243 C   0  0  0  0  0  0
    5.6721   -1.0618    0.7117 C   0  0  0  0  0  0
    4.3406   -0.8146    1.0470 C   0  0  0  0  0  0
    3.5567   -1.9520    2.0947 Cl  0  0  0  0  0  0
    7.7190   -0.4476   -0.4595 N   0  0  0  0  0  0
   -0.2840   -6.3066   -4.7241 C   0  0  0  0  0  0
    3.6696    2.6353   -0.9667 Cl  0  0  0  0  0  0
    8.7131    0.4425   -0.8041 C   0  0  0  0  0  0
    9.8504   -0.1575   -1.0520 N   0  0  0  0  0  0
    9.6316   -1.5195   -0.8732 N   0  0  0  0  0  0
    8.3764   -1.6570   -0.5262 C   0  0  0  0  0  0
    0.1481   -5.1595    0.8475 C   0  0  0  0  0  0
    0.3632   -6.0067    1.6050 N   0  0  0  0  0  0
   -2.0201    1.6333    1.5909 H   0  0  0  0  0  0
   -2.6779    3.9538    1.2975 H   0  0  0  0  0  0
   -1.6466    5.3327   -0.4715 H   0  0  0  0  0  0
    0.0593    4.3616   -1.9721 H   0  0  0  0  0  0
    0.7409    2.0209   -1.7051 H   0  0  0  0  0  0
    0.0047   -6.3281   -2.0290 H   0  0  0  0  0  0
   -0.8609   -1.7480   -3.8403 H   0  0  0  0  0  0
   -0.7369   -3.6983   -5.3313 H   0  0  0  0  0  0
   -0.8837   -2.5200    2.2780 H   0  0  0  0  0  0
    0.7623   -2.0627    1.9364 H   0  0  0  0  0  0
   -1.7746   -0.5429    1.3614 H   0  0  0  0  0  0
   -0.4117    0.0057    2.2908 H   0  0  0  0  0  0
   -0.3798   -0.2385   -2.0431 H   0  0  0  0  0  0
   -1.8475   -0.4713   -1.1146 H   0  0  0  0  0  0
    1.7061   -0.6869   -0.5434 H   0  0  0  0  0  0
    6.2472    1.6297   -1.2771 H   0  0  0  0  0  0
    6.1576   -1.9388    1.1152 H   0  0  0  0  0  0
   -0.3486   -6.0033   -5.7698 H   0  0  0  0  0  0
   -1.0897   -7.0108   -4.5142 H   0  0  0  0  0  0
    0.6583   -6.8384   -4.5866 H   0  0  0  0  0  0
    8.5217    1.5049   -0.8403 H   0  0  0  0  0  0
    7.8619   -2.5831   -0.3155 H   0  0  0  0  0  0
  1  2  2  0  0  0
  1  6  1  0  0  0
  1 18  1  0  0  0
  2  3  1  0  0  0
  2 39  1  0  0  0
  3  4  2  0  0  0
  3 40  1  0  0  0
  4  5  1  0  0  0
  4 41  1  0  0  0
  5  6  2  0  0  0
  5 42  1  0  0  0
  6 43  1  0  0  0
  7  8  2  0  0  0
  7 10  1  0  0  0
  7 31  1  0  0  0
  8 12  1  0  0  0
  8 44  1  0  0  0
  9 11  1  0  0  0
  9 10  2  0  0  0
  9 45  1  0  0  0
 10 46  1  0  0  0
 11 12  2  0  0  0
 11 14  1  0  0  0
 12 13  1  0  0  0
 13 15  2  0  0  0
 13 37  1  0  0  0
 14 15  1  0  0  0
 14 19  1  0  0  0
 15 16  1  0  0  0
 16 17  1  0  0  0
 16 47  1  0  0  0
 16 48  1  0  0  0
 17 18  1  0  0  0
 17 49  1  0  0  0
 17 50  1  0  0  0
 18 19  1  0  0  0
 18 20  1  0  0  0
 19 51  1  0  0  0
 19 52  1  0  0  0
 20 21  1  0  0  0
 20 53  1  0  0  0
 21 22  1  0  0  0
 21 23  2  0  0  0
 22 24  2  0  0  0
 22 28  1  0  0  0
 24 25  1  0  0  0
 24 32  1  0  0  0
 25 26  2  0  0  0
 25 54  1  0  0  0
 26 27  1  0  0  0
 26 30  1  0  0  0
 27 28  2  0  0  0
 27 55  1  0  0  0
 28 29  1  0  0  0
 30 33  1  0  0  0
 30 36  1  0  0  0
 31 56  1  0  0  0
 31 57  1  0  0  0
 31 58  1  0  0  0
 33 34  2  0  0  0
 33 59  1  0  0  0
 34 35  1  0  0  0
 35 36  2  0  0  0
 36 60  1  0  0  0
 37 38  3  0  0  0
M  END
> <chembl_id>
CHEMBL3628960

> <chembl_pref_name>
None

> <i_m_ct_stereo_status>
1

> <s_m_source_file>
sdf/actives_sanitized.sdf

> <i_m_source_file_index>
219

> <i_lp_mmshare_version>
49012

> <i_f3d_flags>
0

> <s_epik_input>
W2NIXTFbY0hdYyhbQ0gzXSlbY0hdYyhjMTIpYyhDI04pYzNuMltDSDJdW0NAXShbQ0gyXVtDSDJdMykoYzRbY0hdW2NIXVtjSF1bY0hdW2NIXTQpW05IXUMoPU8pYzVjKENsKVtjSF1jKFtjSF1jNUNsKS1uNltjSF1ubltjSF02

> <s_epik_cmdline>
J2VwaWtfcHl0aG9uJywgJy1waHQnLCAnMC41JywgJy1waCcsICc3LjUnLCAnLW50JywgJy1tYScsICcyMDAnLCAnLWltYWUnLCAnPGluZmlsZS5tYWU+JywgJy1vbWFlJywgJzxvdXRmaWxlLm1hZT4n

> <r_lp_tautomer_probability>
1

> <r_epik_Ionization_Penalty>
  0.0002

> <r_epik_Ionization_Penalty_Charging>
  0.0000

> <r_epik_Ionization_Penalty_Neutral>
  0.0002

> <r_epik_State_Penalty>
 -0.0000

> <r_epik_Charging_Adjusted_Penalty>
0

> <i_epik_Tot_Q>
0

> <i_epik_Tot_abs_Q>
0

> <s_lp_Force_Field>
OPLS3e

> <r_lp_Energy>
44.078359

> <b_lp_Chiralities_Consistent>
1

> <s_lp_Variant>
sdf/actives_sanitized.sdf:219-1

$$$$
sdf/actives_sanitized.sdf:220
                    3D
 Schrodinger Suite 2020-1.
 87 91  0  0  1  0            999 V2000
   -1.2417    3.0853   -2.9716 C   0  0  0  0  0  0
   -2.6137    2.4693   -2.6181 C   0  0  2  0  0  0
   -3.6870    2.9151   -3.6729 C   0  0  0  0  0  0
   -4.9835    2.0702   -3.8161 C   0  0  0  0  0  0
   -6.0937    2.3146   -2.7574 C   0  0  0  0  0  0
   -6.9531    1.0593   -2.3806 C   0  0  2  0  0  0
   -8.3724    1.4259   -2.1525 N   0  0  0  0  0  0
   -8.6751    2.4945   -1.1563 C   0  0  0  0  0  0
  -10.1006    2.3600   -0.5578 C   0  0  0  0  0  0
  -11.0902    2.1429   -1.6914 C   0  0  0  0  0  0
  -10.6885    1.3880   -2.7350 C   0  0  0  0  0  0
   -9.3584    0.8437   -2.9091 C   0  0  0  0  0  0
   -9.1732   -0.0977   -3.6822 O   0  0  0  0  0  0
  -12.5246    2.4963   -1.5326 C   0  0  0  0  0  0
  -13.2184    3.1359   -2.5756 C   0  0  0  0  0  0
  -12.5912    3.4493   -3.7343 F   0  0  0  0  0  0
  -14.5630    3.4767   -2.4327 C   0  0  0  0  0  0
  -15.2361    3.1899   -1.2489 C   0  0  0  0  0  0
  -14.5657    2.5599   -0.2027 C   0  0  0  0  0  0
  -15.4163    2.2099    1.2604 Cl  0  0  0  0  0  0
  -13.2177    2.2136   -0.3410 C   0  0  0  0  0  0
  -12.5950    1.5843    0.6846 F   0  0  0  0  0  0
   -6.3266    0.2470   -1.2233 C   0  0  0  0  0  0
   -4.9450    0.0816   -1.1720 C   0  0  0  0  0  0
   -4.3305   -0.4680   -0.0528 C   0  0  0  0  0  0
   -5.1470   -0.9718    0.9657 C   0  0  0  0  0  0
   -6.5344   -0.8462    0.8333 C   0  0  0  0  0  0
   -7.1264   -0.2340   -0.2280 N   0  0  0  0  0  0
   -2.8451   -0.4512    0.0068 C   0  0  0  0  0  0
   -2.1445   -1.6535    0.1428 C   0  0  0  0  0  0
   -0.7510   -1.6795    0.1147 C   0  0  0  0  0  0
   -0.0243   -0.4906   -0.0469 C   0  0  0  0  0  0
    1.3778   -0.4204   -0.0795 N   0  0  0  0  0  0
    2.3030   -1.4464   -0.2431 C   0  0  0  0  0  0
    2.0671   -2.6399   -0.4439 O   0  0  0  0  0  0
    3.5402   -0.9183   -0.1629 O   0  0  0  0  0  0
    4.6955   -1.7307   -0.3386 C   0  0  0  0  0  0
    5.9743   -0.9036   -0.1641 C   0  0  0  0  0  0
    6.0531    0.0483   -1.2246 O   0  0  0  0  0  0
    7.1815    0.9304   -1.2879 C   0  0  0  0  0  0
    8.4867    0.1343   -1.5147 C   0  0  0  0  0  0
    7.2789    1.8037   -0.0160 C   0  0  0  0  0  0
    6.8968    1.8236   -2.5106 C   0  0  0  0  0  0
   -0.7134    0.7194   -0.1520 C   0  0  0  0  0  0
   -2.1116    0.7488   -0.1344 C   0  0  0  0  0  0
   -2.7540    1.9998   -0.1201 N   0  0  0  0  0  0
   -2.9769    2.8419   -1.1554 C   0  0  0  0  0  0
   -3.4794    3.9424   -0.9313 O   0  0  0  0  0  0
   -0.4608    2.7708   -2.2788 H   0  0  0  0  0  0
   -1.2724    4.1761   -2.9541 H   0  0  0  0  0  0
   -0.9182    2.7817   -3.9678 H   0  0  0  0  0  0
   -2.4914    1.3893   -2.6999 H   0  0  0  0  0  0
   -3.9470    3.9668   -3.5397 H   0  0  0  0  0  0
   -3.2100    2.8799   -4.6538 H   0  0  0  0  0  0
   -5.4218    2.2962   -4.7895 H   0  0  0  0  0  0
   -4.7220    1.0166   -3.9029 H   0  0  0  0  0  0
   -5.6766    2.7419   -1.8472 H   0  0  0  0  0  0
   -6.7356    3.1056   -3.1495 H   0  0  0  0  0  0
   -6.8897    0.3844   -3.2355 H   0  0  0  0  0  0
   -7.8790    2.6114   -0.4202 H   0  0  0  0  0  0
   -8.6822    3.4272   -1.7223 H   0  0  0  0  0  0
  -10.1040    1.4911    0.1019 H   0  0  0  0  0  0
  -10.3566    3.2356    0.0396 H   0  0  0  0  0  0
  -11.4082    1.1305   -3.4994 H   0  0  0  0  0  0
  -15.0842    3.9691   -3.2408 H   0  0  0  0  0  0
  -16.2776    3.4578   -1.1455 H   0  0  0  0  0  0
   -4.3162    0.4315   -1.9642 H   0  0  0  0  0  0
   -4.7187   -1.4257    1.8474 H   0  0  0  0  0  0
   -7.1951   -1.2141    1.6043 H   0  0  0  0  0  0
   -2.6839   -2.5836    0.2507 H   0  0  0  0  0  0
   -0.2620   -2.6341    0.2279 H   0  0  0  0  0  0
    1.7639    0.5070    0.0200 H   0  0  0  0  0  0
    4.6803   -2.4789    0.4556 H   0  0  0  0  0  0
    4.7104   -2.3029   -1.2675 H   0  0  0  0  0  0
    5.9535   -0.4120    0.8088 H   0  0  0  0  0  0
    6.8325   -1.5752   -0.1691 H   0  0  0  0  0  0
    9.3250    0.7984   -1.7288 H   0  0  0  0  0  0
    8.3883   -0.5517   -2.3569 H   0  0  0  0  0  0
    8.7624   -0.4592   -0.6428 H   0  0  0  0  0  0
    7.5513    1.2181    0.8623 H   0  0  0  0  0  0
    6.3283    2.2923    0.2006 H   0  0  0  0  0  0
    8.0320    2.5848   -0.1270 H   0  0  0  0  0  0
    7.6942    2.5494   -2.6756 H   0  0  0  0  0  0
    5.9656    2.3784   -2.3880 H   0  0  0  0  0  0
    6.7971    1.2302   -3.4206 H   0  0  0  0  0  0
   -0.1613    1.6458   -0.2315 H   0  0  0  0  0  0
   -3.1075    2.2876    0.7806 H   0  0  0  0  0  0
  1  2  1  0  0  0
  1 49  1  0  0  0
  1 50  1  0  0  0
  1 51  1  0  0  0
  2  3  1  0  0  0
  2 47  1  0  0  0
  2 52  1  0  0  0
  3  4  1  0  0  0
  3 53  1  0  0  0
  3 54  1  0  0  0
  4  5  1  0  0  0
  4 55  1  0  0  0
  4 56  1  0  0  0
  5  6  1  0  0  0
  5 57  1  0  0  0
  5 58  1  0  0  0
  6  7  1  0  0  0
  6 23  1  0  0  0
  6 59  1  0  0  0
  7  8  1  0  0  0
  7 12  1  0  0  0
  8  9  1  0  0  0
  8 60  1  0  0  0
  8 61  1  0  0  0
  9 10  1  0  0  0
  9 62  1  0  0  0
  9 63  1  0  0  0
 10 11  2  0  0  0
 10 14  1  0  0  0
 11 12  1  0  0  0
 11 64  1  0  0  0
 12 13  2  0  0  0
 14 15  2  0  0  0
 14 21  1  0  0  0
 15 16  1  0  0  0
 15 17  1  0  0  0
 17 18  2  0  0  0
 17 65  1  0  0  0
 18 19  1  0  0  0
 18 66  1  0  0  0
 19 20  1  0  0  0
 19 21  2  0  0  0
 21 22  1  0  0  0
 23 24  1  0  0  0
 23 28  2  0  0  0
 24 25  2  0  0  0
 24 67  1  0  0  0
 25 26  1  0  0  0
 25 29  1  0  0  0
 26 27  2  0  0  0
 26 68  1  0  0  0
 27 28  1  0  0  0
 27 69  1  0  0  0
 29 30  2  0  0  0
 29 45  1  0  0  0
 30 31  1  0  0  0
 30 70  1  0  0  0
 31 32  2  0  0  0
 31 71  1  0  0  0
 32 33  1  0  0  0
 32 44  1  0  0  0
 33 34  1  0  0  0
 33 72  1  0  0  0
 34 35  2  0  0  0
 34 36  1  0  0  0
 36 37  1  0  0  0
 37 38  1  0  0  0
 37 73  1  0  0  0
 37 74  1  0  0  0
 38 39  1  0  0  0
 38 75  1  0  0  0
 38 76  1  0  0  0
 39 40  1  0  0  0
 40 41  1  0  0  0
 40 42  1  0  0  0
 40 43  1  0  0  0
 41 77  1  0  0  0
 41 78  1  0  0  0
 41 79  1  0  0  0
 42 80  1  0  0  0
 42 81  1  0  0  0
 42 82  1  0  0  0
 43 83  1  0  0  0
 43 84  1  0  0  0
 43 85  1  0  0  0
 44 45  2  0  0  0
 44 86  1  0  0  0
 45 46  1  0  0  0
 46 47  1  0  0  0
 46 87  1  0  0  0
 47 48  2  0  0  0
M  END
> <chembl_id>
CHEMBL4115630

> <chembl_pref_name>
None

> <i_m_ct_stereo_status>
1

> <s_m_source_file>
sdf/actives_sanitized.sdf

> <i_m_source_file_index>
220

> <i_lp_mmshare_version>
49012

> <i_f3d_flags>
0

> <s_epik_input>
W0NIM11DKFtDSDNdKShbQ0gzXSlPW0NIMl1bQ0gyXU9DKD1PKVtOSF1jKFtjSF1bY0hdMSlbY0hdYyhjMWMoW2NIXWMyMylbY0hdW2NIXW4zKVtOSF1DKD1PKVtDQEhdKFtDSDNdKVtDSDJdW0NIMl1bQ0gyXVtDQEBIXTJONFtDSDJdW0NIMl1DKD1bQ0hdQzQ9TyljNWMoRilbY0hdW2NIXWMoQ2wpYzVG

> <s_epik_cmdline>
J2VwaWtfcHl0aG9uJywgJy1waHQnLCAnMC41JywgJy1waCcsICc3LjUnLCAnLW50JywgJy1tYScsICcyMDAnLCAnLWltYWUnLCAnPGluZmlsZS5tYWU+JywgJy1vbWFlJywgJzxvdXRmaWxlLm1hZT4n

> <r_lp_tautomer_probability>
1

> <r_epik_Ionization_Penalty>
  0.0001

> <r_epik_Ionization_Penalty_Charging>
  0.0000

> <r_epik_Ionization_Penalty_Neutral>
  0.0001

> <r_epik_State_Penalty>
 -0.0000

> <r_epik_Charging_Adjusted_Penalty>
0

> <i_epik_Tot_Q>
0

> <i_epik_Tot_abs_Q>
0

> <s_epik_Chemistry_Notes>
This compound has an ester and may undergo hydrolysis at high or low pH.

> <s_lp_Force_Field>
OPLS3e

> <r_lp_Energy>
97.978355

> <b_lp_Chiralities_Consistent>
1

> <s_lp_Variant>
sdf/actives_sanitized.sdf:220-1

$$$$
sdf/actives_sanitized.sdf:221
                    3D
 Schrodinger Suite 2020-1.
 70 75  0  0  1  0            999 V2000
   -5.3256    1.5175   -0.5476 C   0  0  0  0  0  0
   -4.1890    0.8587   -1.3552 C   0  0  2  0  0  0
   -2.8136    1.5337   -1.0762 C   0  0  0  0  0  0
   -2.1902    1.2087    0.3073 C   0  0  0  0  0  0
   -0.6393    1.1238    0.3151 C   0  0  0  0  0  0
   -0.0292   -0.2698   -0.0460 C   0  0  2  0  0  0
    1.4507   -0.3136    0.0679 N   0  0  0  0  0  0
    2.2578    0.8477   -0.4139 C   0  0  0  0  0  0
    3.7097    0.4712   -0.8168 C   0  0  0  0  0  0
    4.2889   -0.4625    0.2260 C   0  0  0  0  0  0
    3.4709   -1.3643    0.7991 C   0  0  0  0  0  0
    2.0428   -1.4420    0.5813 C   0  0  0  0  0  0
    1.4351   -2.4798    0.8509 O   0  0  0  0  0  0
    5.7527   -0.6176    0.3473 C   0  0  0  0  0  0
    6.4096   -1.5223   -0.5034 C   0  0  0  0  0  0
    5.7017   -2.2389   -1.4106 F   0  0  0  0  0  0
    7.7935   -1.6932   -0.4260 C   0  0  0  0  0  0
    8.6023   -2.8063   -1.4716 Cl  0  0  0  0  0  0
    8.5326   -0.9619    0.4992 C   0  0  0  0  0  0
    7.8930   -0.0597    1.3443 C   0  0  0  0  0  0
    6.5071    0.1292    1.2772 C   0  0  0  0  0  0
    5.9139    1.1076    2.2426 C   0  0  0  0  0  0
    6.2331    1.2699    3.6040 C   0  0  0  0  0  0
    5.5432    2.2148    4.2010 N   0  0  0  0  0  0
    4.7601    2.7002    3.2370 N   0  0  0  0  0  0
    4.9419    2.0768    2.0338 C   0  0  0  0  0  0
   -0.5549   -0.8037   -1.3821 C   0  0  0  0  0  0
   -1.7490   -1.5272   -1.4071 C   0  0  0  0  0  0
   -2.3711   -1.7741   -2.6336 C   0  0  0  0  0  0
   -1.7041   -1.4055   -3.8083 C   0  0  0  0  0  0
   -0.4630   -0.7735   -3.7084 C   0  0  0  0  0  0
    0.1072   -0.4524   -2.5190 N   0  0  0  0  0  0
   -3.7468   -2.3308   -2.6538 C   0  0  0  0  0  0
   -3.9549   -3.6376   -2.1943 C   0  0  0  0  0  0
   -5.2309   -4.1984   -2.1778 C   0  0  0  0  0  0
   -6.3230   -3.4562   -2.6192 C   0  0  0  0  0  0
   -6.1401   -2.1511   -3.0714 C   0  0  0  0  0  0
   -4.8652   -1.5758   -3.0766 C   0  0  0  0  0  0
   -4.7694   -0.2633   -3.5669 N   0  0  0  0  0  0
   -4.5097    0.8691   -2.8737 C   0  0  0  0  0  0
   -4.5281    1.9494   -3.4626 O   0  0  0  0  0  0
   -6.2821    1.0255   -0.7311 H   0  0  0  0  0  0
   -5.4452    2.5719   -0.8015 H   0  0  0  0  0  0
   -5.1336    1.4560    0.5240 H   0  0  0  0  0  0
   -4.1317   -0.1730   -1.0157 H   0  0  0  0  0  0
   -2.1116    1.2487   -1.8591 H   0  0  0  0  0  0
   -2.8983    2.6163   -1.1866 H   0  0  0  0  0  0
   -2.5081    1.9809    1.0092 H   0  0  0  0  0  0
   -2.5978    0.2812    0.7108 H   0  0  0  0  0  0
   -0.2412    1.9082   -0.3291 H   0  0  0  0  0  0
   -0.3014    1.3774    1.3211 H   0  0  0  0  0  0
   -0.4274   -0.9429    0.7163 H   0  0  0  0  0  0
    1.7324    1.4300   -1.1706 H   0  0  0  0  0  0
    2.3353    1.5138    0.4460 H   0  0  0  0  0  0
    3.6715   -0.0534   -1.7727 H   0  0  0  0  0  0
    4.3270    1.3582   -0.9606 H   0  0  0  0  0  0
    3.9003   -2.1141    1.4490 H   0  0  0  0  0  0
    9.6033   -1.0911    0.5641 H   0  0  0  0  0  0
    8.4876    0.4985    2.0533 H   0  0  0  0  0  0
    6.9634    0.6901    4.1492 H   0  0  0  0  0  0
    4.1114    3.4564    3.4031 H   0  0  0  0  0  0
    4.3797    2.3806    1.1647 H   0  0  0  0  0  0
   -2.2532   -1.7768   -0.4844 H   0  0  0  0  0  0
   -2.1477   -1.5863   -4.7766 H   0  0  0  0  0  0
    0.0756   -0.4760   -4.5959 H   0  0  0  0  0  0
   -3.1181   -4.2287   -1.8502 H   0  0  0  0  0  0
   -5.3718   -5.2094   -1.8250 H   0  0  0  0  0  0
   -7.3113   -3.8919   -2.6109 H   0  0  0  0  0  0
   -6.9973   -1.5873   -3.4115 H   0  0  0  0  0  0
   -5.0400   -0.1462   -4.5324 H   0  0  0  0  0  0
  1  2  1  0  0  0
  1 42  1  0  0  0
  1 43  1  0  0  0
  1 44  1  0  0  0
  2  3  1  0  0  0
  2 40  1  0  0  0
  2 45  1  0  0  0
  3  4  1  0  0  0
  3 46  1  0  0  0
  3 47  1  0  0  0
  4  5  1  0  0  0
  4 48  1  0  0  0
  4 49  1  0  0  0
  5  6  1  0  0  0
  5 50  1  0  0  0
  5 51  1  0  0  0
  6  7  1  0  0  0
  6 27  1  0  0  0
  6 52  1  0  0  0
  7  8  1  0  0  0
  7 12  1  0  0  0
  8  9  1  0  0  0
  8 53  1  0  0  0
  8 54  1  0  0  0
  9 10  1  0  0  0
  9 55  1  0  0  0
  9 56  1  0  0  0
 10 11  2  0  0  0
 10 14  1  0  0  0
 11 12  1  0  0  0
 11 57  1  0  0  0
 12 13  2  0  0  0
 14 15  2  0  0  0
 14 21  1  0  0  0
 15 16  1  0  0  0
 15 17  1  0  0  0
 17 18  1  0  0  0
 17 19  2  0  0  0
 19 20  1  0  0  0
 19 58  1  0  0  0
 20 21  2  0  0  0
 20 59  1  0  0  0
 21 22  1  0  0  0
 22 23  1  0  0  0
 22 26  2  0  0  0
 23 24  2  0  0  0
 23 60  1  0  0  0
 24 25  1  0  0  0
 25 26  1  0  0  0
 25 61  1  0  0  0
 26 62  1  0  0  0
 27 28  1  0  0  0
 27 32  2  0  0  0
 28 29  2  0  0  0
 28 63  1  0  0  0
 29 30  1  0  0  0
 29 33  1  0  0  0
 30 31  2  0  0  0
 30 64  1  0  0  0
 31 32  1  0  0  0
 31 65  1  0  0  0
 33 34  2  0  0  0
 33 38  1  0  0  0
 34 35  1  0  0  0
 34 66  1  0  0  0
 35 36  2  0  0  0
 35 67  1  0  0  0
 36 37  1  0  0  0
 36 68  1  0  0  0
 37 38  2  0  0  0
 37 69  1  0  0  0
 38 39  1  0  0  0
 39 40  1  0  0  0
 39 70  1  0  0  0
 40 41  2  0  0  0
M  END
> <chembl_id>
CHEMBL4106609

> <chembl_pref_name>
None

> <i_m_ct_stereo_status>
1

> <s_m_source_file>
sdf/actives_sanitized.sdf

> <i_m_source_file_index>
221

> <i_lp_mmshare_version>
49012

> <i_f3d_flags>
0

> <s_epik_input>
bjFbY0hdW2NIXWMoW2NIXWMxMiljM2MoW2NIXVtjSF1bY0hdW2NIXTMpW05IXUMoPU8pW0NASF0oW0NIM10pW0NIMl1bQ0gyXVtDSDJdW0NAQEhdMk40W0NIMl1bQ0gyXUMoPVtDSF1DND1PKWM1YyhGKWMoQ2wpW2NIXVtjSF1jNS1jNltjSF1uW25IXVtjSF02

> <s_epik_cmdline>
J2VwaWtfcHl0aG9uJywgJy1waHQnLCAnMC41JywgJy1waCcsICc3LjUnLCAnLW50JywgJy1tYScsICcyMDAnLCAnLWltYWUnLCAnPGluZmlsZS5tYWU+JywgJy1vbWFlJywgJzxvdXRmaWxlLm1hZT4n

> <r_lp_tautomer_probability>
1

> <r_epik_Ionization_Penalty>
  0.0001

> <r_epik_Ionization_Penalty_Charging>
  0.0000

> <r_epik_Ionization_Penalty_Neutral>
  0.0001

> <r_epik_State_Penalty>
 -0.0000

> <r_epik_Charging_Adjusted_Penalty>
0

> <i_epik_Tot_Q>
0

> <i_epik_Tot_abs_Q>
0

> <s_lp_Force_Field>
OPLS3e

> <r_lp_Energy>
95.50564

> <b_lp_Chiralities_Consistent>
1

> <s_lp_Variant>
sdf/actives_sanitized.sdf:221-1

$$$$
sdf/actives_sanitized.sdf:222
                    3D
 Schrodinger Suite 2020-1.
 71 75  0  0  1  0            999 V2000
   -1.3763   -4.0470    2.1586 C   0  0  0  0  0  0
   -2.6918   -3.2516    2.0061 C   0  0  2  0  0  0
   -3.7450   -3.7595    3.0519 C   0  0  0  0  0  0
   -4.9298   -2.8253    3.4220 C   0  0  0  0  0  0
   -6.1224   -2.7848    2.4274 C   0  0  0  0  0  0
   -6.8549   -1.4038    2.3163 C   0  0  2  0  0  0
   -8.3227   -1.5711    2.1788 N   0  0  0  0  0  0
   -8.8371   -2.4697    1.1044 C   0  0  0  0  0  0
  -10.2701   -2.0882    0.6462 C   0  0  0  0  0  0
  -11.1374   -1.8765    1.8761 C   0  0  0  0  0  0
  -10.5660   -1.3005    2.9535 C   0  0  0  0  0  0
   -9.1659   -0.9504    3.0665 C   0  0  0  0  0  0
   -8.8012   -0.1267    3.9072 O   0  0  0  0  0  0
  -12.6130   -2.0208    1.8027 C   0  0  0  0  0  0
  -13.3428   -1.4794    0.7302 C   0  0  0  0  0  0
  -12.7233   -0.7894   -0.2559 F   0  0  0  0  0  0
  -14.7284   -1.6267    0.6685 C   0  0  0  0  0  0
  -15.4065   -2.3139    1.6714 C   0  0  0  0  0  0
  -14.6999   -2.8592    2.7410 C   0  0  0  0  0  0
  -15.5547   -3.7147    3.9753 Cl  0  0  0  0  0  0
  -13.3105   -2.7159    2.8074 C   0  0  0  0  0  0
  -12.6386   -3.2691    3.8464 F   0  0  0  0  0  0
   -6.2253   -0.4996    1.2323 C   0  0  0  0  0  0
   -4.8395   -0.4449    1.1115 C   0  0  0  0  0  0
   -4.2409    0.1982    0.0340 C   0  0  0  0  0  0
   -5.0625    0.9011   -0.8541 C   0  0  0  0  0  0
   -6.4461    0.8751   -0.6458 C   0  0  0  0  0  0
   -7.0321    0.1762    0.3641 N   0  0  0  0  0  0
   -2.7694    0.0636   -0.1240 C   0  0  0  0  0  0
   -1.9644    1.2076   -0.1185 C   0  0  0  0  0  0
   -0.5748    1.1029   -0.1590 C   0  0  0  0  0  0
    0.0359   -0.1504   -0.2090 C   0  0  0  0  0  0
    1.4316   -0.2298   -0.2445 N   0  0  0  0  0  0
    2.2786   -0.9823    1.1197 S   0  0  0  0  0  0
    2.2545   -0.0090    2.2165 O   0  0  0  0  0  0
    1.7297   -2.3302    1.3014 O   0  0  0  0  0  0
    4.0388   -1.1240    0.4615 C   0  0  0  0  0  0
   -0.7547   -1.3011   -0.2566 C   0  0  0  0  0  0
   -2.1491   -1.2041   -0.2059 C   0  0  0  0  0  0
   -2.9112   -2.3743   -0.3729 N   0  0  0  0  0  0
   -3.1720   -3.3447    0.5329 C   0  0  0  0  0  0
   -3.8050   -4.3378    0.1767 O   0  0  0  0  0  0
   -0.6121   -3.7107    1.4584 H   0  0  0  0  0  0
   -1.5265   -5.1138    1.9853 H   0  0  0  0  0  0
   -0.9585   -3.9312    3.1591 H   0  0  0  0  0  0
   -2.4522   -2.2160    2.2463 H   0  0  0  0  0  0
   -4.1250   -4.7440    2.7733 H   0  0  0  0  0  0
   -3.2116   -3.9342    3.9880 H   0  0  0  0  0  0
   -5.3299   -3.1593    4.3807 H   0  0  0  0  0  0
   -4.5483   -1.8306    3.6476 H   0  0  0  0  0  0
   -5.8103   -3.1005    1.4332 H   0  0  0  0  0  0
   -6.8234   -3.5602    2.7418 H   0  0  0  0  0  0
   -6.6433   -0.8778    3.2487 H   0  0  0  0  0  0
   -8.1185   -2.5978    0.2942 H   0  0  0  0  0  0
   -8.9275   -3.4542    1.5659 H   0  0  0  0  0  0
  -10.2032   -1.1571    0.0815 H   0  0  0  0  0  0
  -10.6846   -2.8510   -0.0137 H   0  0  0  0  0  0
  -11.1893   -1.0416    3.7980 H   0  0  0  0  0  0
  -15.2797   -1.2034   -0.1583 H   0  0  0  0  0  0
  -16.4799   -2.4226    1.6164 H   0  0  0  0  0  0
   -4.2031   -0.9514    1.8084 H   0  0  0  0  0  0
   -4.6444    1.4322   -1.6969 H   0  0  0  0  0  0
   -7.1122    1.3985   -1.3156 H   0  0  0  0  0  0
   -2.4160    2.1871   -0.0521 H   0  0  0  0  0  0
    0.0244    2.0018   -0.1357 H   0  0  0  0  0  0
    1.8282    0.6799   -0.4284 H   0  0  0  0  0  0
    4.6612   -1.5962    1.2210 H   0  0  0  0  0  0
    4.4166   -0.1265    0.2385 H   0  0  0  0  0  0
    4.0305   -1.7318   -0.4428 H   0  0  0  0  0  0
   -0.2868   -2.2702   -0.3548 H   0  0  0  0  0  0
   -3.3352   -2.4811   -1.2829 H   0  0  0  0  0  0
  1  2  1  0  0  0
  1 43  1  0  0  0
  1 44  1  0  0  0
  1 45  1  0  0  0
  2  3  1  0  0  0
  2 41  1  0  0  0
  2 46  1  0  0  0
  3  4  1  0  0  0
  3 47  1  0  0  0
  3 48  1  0  0  0
  4  5  1  0  0  0
  4 49  1  0  0  0
  4 50  1  0  0  0
  5  6  1  0  0  0
  5 51  1  0  0  0
  5 52  1  0  0  0
  6  7  1  0  0  0
  6 23  1  0  0  0
  6 53  1  0  0  0
  7  8  1  0  0  0
  7 12  1  0  0  0
  8  9  1  0  0  0
  8 54  1  0  0  0
  8 55  1  0  0  0
  9 10  1  0  0  0
  9 56  1  0  0  0
  9 57  1  0  0  0
 10 11  2  0  0  0
 10 14  1  0  0  0
 11 12  1  0  0  0
 11 58  1  0  0  0
 12 13  2  0  0  0
 14 15  2  0  0  0
 14 21  1  0  0  0
 15 16  1  0  0  0
 15 17  1  0  0  0
 17 18  2  0  0  0
 17 59  1  0  0  0
 18 19  1  0  0  0
 18 60  1  0  0  0
 19 20  1  0  0  0
 19 21  2  0  0  0
 21 22  1  0  0  0
 23 24  1  0  0  0
 23 28  2  0  0  0
 24 25  2  0  0  0
 24 61  1  0  0  0
 25 26  1  0  0  0
 25 29  1  0  0  0
 26 27  2  0  0  0
 26 62  1  0  0  0
 27 28  1  0  0  0
 27 63  1  0  0  0
 29 30  2  0  0  0
 29 39  1  0  0  0
 30 31  1  0  0  0
 30 64  1  0  0  0
 31 32  2  0  0  0
 31 65  1  0  0  0
 32 33  1  0  0  0
 32 38  1  0  0  0
 33 34  1  0  0  0
 33 66  1  0  0  0
 34 35  2  0  0  0
 34 36  2  0  0  0
 34 37  1  0  0  0
 37 67  1  0  0  0
 37 68  1  0  0  0
 37 69  1  0  0  0
 38 39  2  0  0  0
 38 70  1  0  0  0
 39 40  1  0  0  0
 40 41  1  0  0  0
 40 71  1  0  0  0
 41 42  2  0  0  0
M  END
> <chembl_id>
CHEMBL4110391

> <chembl_pref_name>
None

> <i_m_ct_stereo_status>
1

> <s_m_source_file>
sdf/actives_sanitized.sdf

> <i_m_source_file_index>
222

> <i_lp_mmshare_version>
49012

> <i_f3d_flags>
0

> <s_epik_input>
bjFbY0hdW2NIXWMoW2NIXWMxMiljM2MoW2NIXWMoW2NIXVtjSF0zKVtOSF1TKD1PKSg9TylbQ0gzXSlbTkhdQyg9TylbQ0BIXShbQ0gzXSlbQ0gyXVtDSDJdW0NIMl1bQ0BASF0yTjRbQ0gyXVtDSDJdQyg9W0NIXUM0PU8pYzVjKEYpW2NIXVtjSF1jKENsKWM1Rg==

> <s_epik_cmdline>
J2VwaWtfcHl0aG9uJywgJy1waHQnLCAnMC41JywgJy1waCcsICc3LjUnLCAnLW50JywgJy1tYScsICcyMDAnLCAnLWltYWUnLCAnPGluZmlsZS5tYWU+JywgJy1vbWFlJywgJzxvdXRmaWxlLm1hZT4n

> <r_epik_Ionization_Penalty>
  0.1157

> <r_epik_Ionization_Penalty_Charging>
  0.0000

> <r_epik_Ionization_Penalty_Neutral>
  0.1157

> <r_epik_State_Penalty>
  0.1052

> <r_epik_Charging_Adjusted_Penalty>
0.105241620160391

> <i_epik_Tot_Q>
0

> <i_epik_Tot_abs_Q>
0

> <s_lp_Force_Field>
OPLS3e

> <r_lp_Energy>
89.070776

> <b_lp_Chiralities_Consistent>
1

> <s_lp_Variant>
sdf/actives_sanitized.sdf:222-1

$$$$
sdf/actives_sanitized.sdf:223
                    3D
 Schrodinger Suite 2020-1.
 74 79  0  0  1  0            999 V2000
   -5.1494    1.9174   -1.1524 C   0  0  0  0  0  0
   -4.0506    1.0153   -1.7503 C   0  0  2  0  0  0
   -2.6510    1.6967   -1.7023 C   0  0  0  0  0  0
   -2.0006    1.7661   -0.2948 C   0  0  0  0  0  0
   -0.4526    1.6374   -0.2885 C   0  0  0  0  0  0
    0.1115    0.1799   -0.2385 C   0  0  2  0  0  0
    1.5916    0.1199   -0.1347 N   0  0  0  0  0  0
    2.4241    1.0848   -0.9144 C   0  0  0  0  0  0
    3.8560    0.5660   -1.2180 C   0  0  0  0  0  0
    4.4304   -0.0760    0.0298 C   0  0  0  0  0  0
    3.5929   -0.7578    0.8345 C   0  0  0  0  0  0
    2.1606   -0.8506    0.6535 C   0  0  0  0  0  0
    1.5296   -1.7630    1.1904 O   0  0  0  0  0  0
    5.8964   -0.1997    0.1839 C   0  0  0  0  0  0
    6.5312   -1.4527    0.1527 C   0  0  0  0  0  0
    5.8140   -2.5870   -0.0280 F   0  0  0  0  0  0
    7.9153   -1.5476    0.2964 C   0  0  0  0  0  0
    8.6821   -0.3979    0.4703 C   0  0  0  0  0  0
    8.0666    0.8524    0.5006 C   0  0  0  0  0  0
    9.0308    2.2695    0.7199 Cl  0  0  0  0  0  0
    6.6792    0.9527    0.3569 C   0  0  0  0  0  0
    6.0920    2.1736    0.3968 F   0  0  0  0  0  0
   -0.4595   -0.6997   -1.3542 C   0  0  0  0  0  0
   -1.6711   -1.3619   -1.1477 C   0  0  0  0  0  0
   -2.3301   -1.9335   -2.2384 C   0  0  0  0  0  0
   -1.6848   -1.9418   -3.4811 C   0  0  0  0  0  0
   -0.4263   -1.3460   -3.5901 C   0  0  0  0  0  0
    0.1823   -0.7122   -2.5551 N   0  0  0  0  0  0
   -3.7195   -2.4258   -2.0691 C   0  0  0  0  0  0
   -3.9498   -3.5340   -1.2475 C   0  0  0  0  0  0
   -5.2395   -4.0157   -1.0339 C   0  0  0  0  0  0
   -6.3391   -3.3877   -1.6288 C   0  0  0  0  0  0
   -7.6644   -3.8294   -1.4732 N   0  0  0  0  0  0
   -8.3159   -4.6235   -0.5140 C   0  0  0  0  0  0
   -9.6162   -5.0532   -0.8032 C   0  0  0  0  0  0
  -10.2972   -5.8345    0.1320 C   0  0  0  0  0  0
   -9.7602   -6.1905    1.3257 N   0  0  0  0  0  0
   -8.5084   -5.7514    1.6084 C   0  0  0  0  0  0
   -7.7593   -4.9689    0.7273 C   0  0  0  0  0  0
   -6.1169   -2.2923   -2.4656 C   0  0  0  0  0  0
   -4.8280   -1.7913   -2.6708 C   0  0  0  0  0  0
   -4.7109   -0.6852   -3.5276 N   0  0  0  0  0  0
   -4.4079    0.5920   -3.2004 C   0  0  0  0  0  0
   -4.4148    1.4533   -4.0791 O   0  0  0  0  0  0
   -6.1223    1.4234   -1.1653 H   0  0  0  0  0  0
   -5.2496    2.8538   -1.7036 H   0  0  0  0  0  0
   -4.9306    2.1678   -0.1139 H   0  0  0  0  0  0
   -4.0124    0.1260   -1.1251 H   0  0  0  0  0  0
   -1.9767    1.1752   -2.3806 H   0  0  0  0  0  0
   -2.7103    2.7031   -2.1206 H   0  0  0  0  0  0
   -2.2807    2.7183    0.1581 H   0  0  0  0  0  0
   -2.4216    1.0089    0.3674 H   0  0  0  0  0  0
   -0.0510    2.1877   -1.1396 H   0  0  0  0  0  0
   -0.0830    2.1609    0.5945 H   0  0  0  0  0  0
   -0.2869   -0.2307    0.6919 H   0  0  0  0  0  0
    1.9025    1.4636   -1.7930 H   0  0  0  0  0  0
    2.5413    1.9519   -0.2631 H   0  0  0  0  0  0
    3.7849   -0.1916   -1.9999 H   0  0  0  0  0  0
    4.4889    1.3677   -1.5992 H   0  0  0  0  0  0
    4.0073   -1.3069    1.6685 H   0  0  0  0  0  0
    8.3962   -2.5145    0.2699 H   0  0  0  0  0  0
    9.7536   -0.4792    0.5810 H   0  0  0  0  0  0
   -2.1576   -1.3178   -0.1837 H   0  0  0  0  0  0
   -2.1569   -2.3821   -4.3474 H   0  0  0  0  0  0
    0.0966   -1.3344   -4.5348 H   0  0  0  0  0  0
   -3.1180   -4.0385   -0.7766 H   0  0  0  0  0  0
   -5.3532   -4.9040   -0.4342 H   0  0  0  0  0  0
   -8.2917   -3.4650   -2.1756 H   0  0  0  0  0  0
  -10.0926   -4.7976   -1.7390 H   0  0  0  0  0  0
  -11.2980   -6.1871   -0.0696 H   0  0  0  0  0  0
   -8.1089   -6.0273    2.5732 H   0  0  0  0  0  0
   -6.7899   -4.6194    1.0426 H   0  0  0  0  0  0
   -6.9577   -1.8104   -2.9462 H   0  0  0  0  0  0
   -4.9998   -0.8487   -4.4810 H   0  0  0  0  0  0
  1  2  1  0  0  0
  1 45  1  0  0  0
  1 46  1  0  0  0
  1 47  1  0  0  0
  2  3  1  0  0  0
  2 43  1  0  0  0
  2 48  1  0  0  0
  3  4  1  0  0  0
  3 49  1  0  0  0
  3 50  1  0  0  0
  4  5  1  0  0  0
  4 51  1  0  0  0
  4 52  1  0  0  0
  5  6  1  0  0  0
  5 53  1  0  0  0
  5 54  1  0  0  0
  6  7  1  0  0  0
  6 23  1  0  0  0
  6 55  1  0  0  0
  7  8  1  0  0  0
  7 12  1  0  0  0
  8  9  1  0  0  0
  8 56  1  0  0  0
  8 57  1  0  0  0
  9 10  1  0  0  0
  9 58  1  0  0  0
  9 59  1  0  0  0
 10 11  2  0  0  0
 10 14  1  0  0  0
 11 12  1  0  0  0
 11 60  1  0  0  0
 12 13  2  0  0  0
 14 15  2  0  0  0
 14 21  1  0  0  0
 15 16  1  0  0  0
 15 17  1  0  0  0
 17 18  2  0  0  0
 17 61  1  0  0  0
 18 19  1  0  0  0
 18 62  1  0  0  0
 19 20  1  0  0  0
 19 21  2  0  0  0
 21 22  1  0  0  0
 23 24  1  0  0  0
 23 28  2  0  0  0
 24 25  2  0  0  0
 24 63  1  0  0  0
 25 26  1  0  0  0
 25 29  1  0  0  0
 26 27  2  0  0  0
 26 64  1  0  0  0
 27 28  1  0  0  0
 27 65  1  0  0  0
 29 30  2  0  0  0
 29 41  1  0  0  0
 30 31  1  0  0  0
 30 66  1  0  0  0
 31 32  2  0  0  0
 31 67  1  0  0  0
 32 33  1  0  0  0
 32 40  1  0  0  0
 33 34  1  0  0  0
 33 68  1  0  0  0
 34 35  2  0  0  0
 34 39  1  0  0  0
 35 36  1  0  0  0
 35 69  1  0  0  0
 36 37  2  0  0  0
 36 70  1  0  0  0
 37 38  1  0  0  0
 38 39  2  0  0  0
 38 71  1  0  0  0
 39 72  1  0  0  0
 40 41  2  0  0  0
 40 73  1  0  0  0
 41 42  1  0  0  0
 42 43  1  0  0  0
 42 74  1  0  0  0
 43 44  2  0  0  0
M  END
> <chembl_id>
CHEMBL4109245

> <chembl_pref_name>
None

> <i_m_ct_stereo_status>
1

> <s_m_source_file>
sdf/actives_sanitized.sdf

> <i_m_source_file_index>
223

> <i_lp_mmshare_version>
49012

> <i_f3d_flags>
0

> <s_epik_input>
W2NIXTFbY0hdbltjSF1bY0hdYzFbTkhdYyhbY0hdW2NIXTIpW2NIXWMoYzJjKFtjSF1jMzQpW2NIXVtjSF1uNClbTkhdQyg9TylbQ0BIXShbQ0gzXSlbQ0gyXVtDSDJdW0NIMl1bQ0BASF0zTjVbQ0gyXVtDSDJdQyg9W0NIXUM1PU8pYzZjKEYpW2NIXVtjSF1jKENsKWM2Rg==

> <s_epik_cmdline>
J2VwaWtfcHl0aG9uJywgJy1waHQnLCAnMC41JywgJy1waCcsICc3LjUnLCAnLW50JywgJy1tYScsICcyMDAnLCAnLWltYWUnLCAnPGluZmlsZS5tYWU+JywgJy1vbWFlJywgJzxvdXRmaWxlLm1hZT4n

> <r_lp_tautomer_probability>
0.999999106000799

> <r_epik_Ionization_Penalty>
  0.2431

> <r_epik_Ionization_Penalty_Charging>
  0.0000

> <r_epik_Ionization_Penalty_Neutral>
  0.2431

> <r_epik_State_Penalty>
  0.2340

> <r_epik_Charging_Adjusted_Penalty>
0.234041379171327

> <i_epik_Tot_Q>
0

> <i_epik_Tot_abs_Q>
0

> <s_lp_Force_Field>
OPLS3e

> <r_lp_Energy>
106.566039

> <b_lp_Chiralities_Consistent>
1

> <s_lp_Variant>
sdf/actives_sanitized.sdf:223-1

$$$$
sdf/actives_sanitized.sdf:223
                    3D
 Schrodinger Suite 2020-1.
 75 80  0  0  1  0            999 V2000
   -5.1336    1.9562   -1.1732 C   0  0  0  0  0  0
   -4.0395    1.0425   -1.7622 C   0  0  2  0  0  0
   -2.6354    1.7146   -1.7210 C   0  0  0  0  0  0
   -1.9826    1.7905   -0.3150 C   0  0  0  0  0  0
   -0.4352    1.6544   -0.3097 C   0  0  0  0  0  0
    0.1213    0.1944   -0.2480 C   0  0  2  0  0  0
    1.6014    0.1264   -0.1456 N   0  0  0  0  0  0
    2.4393    1.0817   -0.9315 C   0  0  0  0  0  0
    3.8689    0.5540   -1.2317 C   0  0  0  0  0  0
    4.4396   -0.0834    0.0201 C   0  0  0  0  0  0
    3.5984   -0.7568    0.8280 C   0  0  0  0  0  0
    2.1655   -0.8428    0.6477 C   0  0  0  0  0  0
    1.5292   -1.7484    1.1898 O   0  0  0  0  0  0
    5.9050   -0.2129    0.1766 C   0  0  0  0  0  0
    6.5337   -1.4691    0.1526 C   0  0  0  0  0  0
    5.8112   -2.6006   -0.0248 F   0  0  0  0  0  0
    7.9169   -1.5701    0.3002 C   0  0  0  0  0  0
    8.6890   -0.4236    0.4713 C   0  0  0  0  0  0
    8.0798    0.8300    0.4936 C   0  0  0  0  0  0
    9.0511    2.2431    0.7073 Cl  0  0  0  0  0  0
    6.6932    0.9364    0.3456 C   0  0  0  0  0  0
    6.1121    2.1605    0.3775 F   0  0  0  0  0  0
   -0.4575   -0.6922   -1.3544 C   0  0  0  0  0  0
   -1.6729   -1.3450   -1.1396 C   0  0  0  0  0  0
   -2.3383   -1.9217   -2.2241 C   0  0  0  0  0  0
   -1.6958   -1.9439   -3.4683 C   0  0  0  0  0  0
   -0.4335   -1.3575   -3.5848 C   0  0  0  0  0  0
    0.1816   -0.7193   -2.5564 N   0  0  0  0  0  0
   -3.7313   -2.4028   -2.0483 C   0  0  0  0  0  0
   -3.9690   -3.4998   -1.2137 C   0  0  0  0  0  0
   -5.2622   -3.9699   -0.9936 C   0  0  0  0  0  0
   -6.3576   -3.3411   -1.5960 C   0  0  0  0  0  0
   -7.6846   -3.7731   -1.4277 N   0  0  0  0  0  0
   -8.3075   -4.5889   -0.4684 C   0  0  0  0  0  0
   -9.5511   -5.1501   -0.7890 C   0  0  0  0  0  0
  -10.2147   -5.9513    0.1438 C   0  0  0  0  0  0
   -9.6528   -6.1631    1.3496 N   0  3  0  0  0  0
   -8.4699   -5.6313    1.7136 C   0  0  0  0  0  0
   -7.7734   -4.8245    0.8099 C   0  0  0  0  0  0
   -6.1291   -2.2546   -2.4430 C   0  0  0  0  0  0
   -4.8362   -1.7664   -2.6553 C   0  0  0  0  0  0
   -4.7115   -0.6699   -3.5233 N   0  0  0  0  0  0
   -4.3994    0.6081   -3.2084 C   0  0  0  0  0  0
   -4.3989    1.4603   -4.0955 O   0  0  0  0  0  0
   -6.1079    1.4645   -1.1771 H   0  0  0  0  0  0
   -5.2333    2.8852   -1.7370 H   0  0  0  0  0  0
   -4.9117    2.2205   -0.1388 H   0  0  0  0  0  0
   -4.0066    0.1595   -1.1281 H   0  0  0  0  0  0
   -1.9656    1.1823   -2.3955 H   0  0  0  0  0  0
   -2.6877    2.7180   -2.1476 H   0  0  0  0  0  0
   -2.2576    2.7471    0.1317 H   0  0  0  0  0  0
   -2.4058    1.0400    0.3534 H   0  0  0  0  0  0
   -0.0319    2.1958   -1.1657 H   0  0  0  0  0  0
   -0.0614    2.1832    0.5684 H   0  0  0  0  0  0
   -0.2778   -0.2052    0.6869 H   0  0  0  0  0  0
    1.9199    1.4583   -1.8125 H   0  0  0  0  0  0
    2.5615    1.9520   -0.2855 H   0  0  0  0  0  0
    3.7940   -0.2078   -2.0092 H   0  0  0  0  0  0
    4.5059    1.3506   -1.6174 H   0  0  0  0  0  0
    4.0098   -1.3037    1.6651 H   0  0  0  0  0  0
    8.3927   -2.5395    0.2791 H   0  0  0  0  0  0
    9.7599   -0.5101    0.5849 H   0  0  0  0  0  0
   -2.1567   -1.2893   -0.1747 H   0  0  0  0  0  0
   -2.1732   -2.3864   -4.3305 H   0  0  0  0  0  0
    0.0871   -1.3566   -4.5310 H   0  0  0  0  0  0
   -3.1404   -4.0029   -0.7358 H   0  0  0  0  0  0
   -5.3864   -4.8443   -0.3744 H   0  0  0  0  0  0
   -8.3323   -3.3568   -2.0812 H   0  0  0  0  0  0
  -10.0015   -4.9760   -1.7561 H   0  0  0  0  0  0
  -11.1705   -6.4257   -0.0261 H   0  0  0  0  0  0
   -8.1339   -5.8593    2.7150 H   0  0  0  0  0  0
   -6.8476   -4.3707    1.1275 H   0  0  0  0  0  0
   -6.9665   -1.7698   -2.9272 H   0  0  0  0  0  0
   -4.9998   -0.8408   -4.4757 H   0  0  0  0  0  0
  -10.1460   -6.7413    2.0154 H   0  0  0  0  0  0
  1  2  1  0  0  0
  1 45  1  0  0  0
  1 46  1  0  0  0
  1 47  1  0  0  0
  2  3  1  0  0  0
  2 43  1  0  0  0
  2 48  1  0  0  0
  3  4  1  0  0  0
  3 49  1  0  0  0
  3 50  1  0  0  0
  4  5  1  0  0  0
  4 51  1  0  0  0
  4 52  1  0  0  0
  5  6  1  0  0  0
  5 53  1  0  0  0
  5 54  1  0  0  0
  6  7  1  0  0  0
  6 23  1  0  0  0
  6 55  1  0  0  0
  7  8  1  0  0  0
  7 12  1  0  0  0
  8  9  1  0  0  0
  8 56  1  0  0  0
  8 57  1  0  0  0
  9 10  1  0  0  0
  9 58  1  0  0  0
  9 59  1  0  0  0
 10 11  2  0  0  0
 10 14  1  0  0  0
 11 12  1  0  0  0
 11 60  1  0  0  0
 12 13  2  0  0  0
 14 15  2  0  0  0
 14 21  1  0  0  0
 15 16  1  0  0  0
 15 17  1  0  0  0
 17 18  2  0  0  0
 17 61  1  0  0  0
 18 19  1  0  0  0
 18 62  1  0  0  0
 19 20  1  0  0  0
 19 21  2  0  0  0
 21 22  1  0  0  0
 23 24  1  0  0  0
 23 28  2  0  0  0
 24 25  2  0  0  0
 24 63  1  0  0  0
 25 26  1  0  0  0
 25 29  1  0  0  0
 26 27  2  0  0  0
 26 64  1  0  0  0
 27 28  1  0  0  0
 27 65  1  0  0  0
 29 30  2  0  0  0
 29 41  1  0  0  0
 30 31  1  0  0  0
 30 66  1  0  0  0
 31 32  2  0  0  0
 31 67  1  0  0  0
 32 33  1  0  0  0
 32 40  1  0  0  0
 33 34  1  0  0  0
 33 68  1  0  0  0
 34 35  2  0  0  0
 34 39  1  0  0  0
 35 36  1  0  0  0
 35 69  1  0  0  0
 36 37  2  0  0  0
 36 70  1  0  0  0
 37 38  1  0  0  0
 37 75  1  0  0  0
 38 39  2  0  0  0
 38 71  1  0  0  0
 39 72  1  0  0  0
 40 41  2  0  0  0
 40 73  1  0  0  0
 41 42  1  0  0  0
 42 43  1  0  0  0
 42 74  1  0  0  0
 43 44  2  0  0  0
M  CHG  1  37   1
M  END
> <chembl_id>
CHEMBL4109245

> <chembl_pref_name>
None

> <i_m_ct_stereo_status>
1

> <s_m_source_file>
sdf/actives_sanitized.sdf

> <i_m_source_file_index>
223

> <i_lp_mmshare_version>
49012

> <i_f3d_flags>
0

> <s_epik_input>
W2NIXTFbY0hdbltjSF1bY0hdYzFbTkhdYyhbY0hdW2NIXTIpW2NIXWMoYzJjKFtjSF1jMzQpW2NIXVtjSF1uNClbTkhdQyg9TylbQ0BIXShbQ0gzXSlbQ0gyXVtDSDJdW0NIMl1bQ0BASF0zTjVbQ0gyXVtDSDJdQyg9W0NIXUM1PU8pYzZjKEYpW2NIXVtjSF1jKENsKWM2Rg==

> <s_epik_cmdline>
J2VwaWtfcHl0aG9uJywgJy1waHQnLCAnMC41JywgJy1waCcsICc3LjUnLCAnLW50JywgJy1tYScsICcyMDAnLCAnLWltYWUnLCAnPGluZmlsZS5tYWU+JywgJy1vbWFlJywgJzxvdXRmaWxlLm1hZT4n

> <r_lp_tautomer_probability>
0.9999999999368

> <r_epik_Ionization_Penalty>
  0.6456

> <r_epik_Ionization_Penalty_Charging>
  0.6454

> <r_epik_Ionization_Penalty_Neutral>
  0.0001

> <r_epik_State_Penalty>
  0.6635

> <r_epik_Charging_Adjusted_Penalty>
1.30893209128936

> <i_epik_Tot_Q>
1

> <i_epik_Tot_abs_Q>
1

> <s_lp_Force_Field>
OPLS3e

> <r_lp_Energy>
113.044777

> <b_lp_Chiralities_Consistent>
1

> <s_lp_Variant>
sdf/actives_sanitized.sdf:223-2

$$$$
sdf/actives_sanitized.sdf:224
                    3D
 Schrodinger Suite 2020-1.
 54 58  0  0  1  0            999 V2000
   -0.4723   -0.5589    6.5206 C   0  0  0  0  0  0
   -0.3878    0.6482    5.8284 C   0  0  0  0  0  0
   -0.5799   -1.7705    4.4105 C   0  0  0  0  0  0
   -0.5690   -1.7564    5.8081 C   0  0  0  0  0  0
   -0.4908   -0.5546    3.7071 C   0  0  0  0  0  0
   -0.3980    0.6293    4.4584 N   0  0  0  0  0  0
   -0.3269    1.7284    3.6762 N   0  0  0  0  0  0
   -0.4666   -0.1206    2.3586 C   0  0  0  0  0  0
   -0.3668    1.2810    2.4386 C   0  0  0  0  0  0
   -0.3091    2.1871    1.2133 C   0  0  0  0  0  0
   -0.7573    1.3616   -0.0171 C   0  0  0  0  0  0
   -0.0208   -0.0103   -0.1250 C   0  0  2  0  0  0
   -0.5615   -0.8924    1.0423 C   0  0  0  0  0  0
    1.4519    0.0666   -0.0429 N   0  0  0  0  0  0
    2.2945    0.7716   -0.8219 C   0  0  0  0  0  0
    3.7505    0.5508   -0.5185 C   0  0  0  0  0  0
    1.9517    1.5286   -1.7297 O   0  0  0  0  0  0
    4.4168    1.3542    0.4269 C   0  0  0  0  0  0
    5.7718    1.1482    0.6891 C   0  0  0  0  0  0
    6.4892    0.1483    0.0234 C   0  0  0  0  0  0
    5.8228   -0.6530   -0.9124 C   0  0  0  0  0  0
    4.4687   -0.4600   -1.1859 C   0  0  0  0  0  0
    3.7295   -1.5020   -2.3601 Cl  0  0  0  0  0  0
    7.8677   -0.0415    0.2947 N   0  0  0  0  0  0
    8.6167    0.3765    1.3670 C   0  0  0  0  0  0
    9.8635    0.0044    1.2380 N   0  0  0  0  0  0
    9.8448   -0.6455    0.0850 C   0  0  0  0  0  0
    8.6850   -0.7078   -0.5355 N   0  0  0  0  0  0
   11.0964   -1.2592   -0.5021 C   0  0  0  0  0  0
    3.6131    2.6186    1.3009 Cl  0  0  0  0  0  0
   -0.3814   -0.7050   -1.4640 C   0  0  0  0  0  0
   -0.4663   -0.5602    8.0380 C   0  0  0  0  0  0
   -0.3141    1.6117    6.3127 H   0  0  0  0  0  0
   -0.6559   -2.7075    3.8791 H   0  0  0  0  0  0
   -0.6371   -2.6944    6.3404 H   0  0  0  0  0  0
   -0.9530    3.0593    1.3303 H   0  0  0  0  0  0
    0.7039    2.5593    1.0641 H   0  0  0  0  0  0
   -1.8400    1.2210   -0.0175 H   0  0  0  0  0  0
   -0.5400    1.9675   -0.8977 H   0  0  0  0  0  0
   -0.0022   -1.8278    1.1018 H   0  0  0  0  0  0
   -1.6008   -1.1764    0.8686 H   0  0  0  0  0  0
    1.8601   -0.4617    0.7143 H   0  0  0  0  0  0
    6.2606    1.7854    1.4113 H   0  0  0  0  0  0
    6.3518   -1.4360   -1.4371 H   0  0  0  0  0  0
    8.1803    0.9321    2.1834 H   0  0  0  0  0  0
   10.9968   -1.5409   -1.5510 H   0  0  0  0  0  0
   11.4575   -2.1024    0.0871 H   0  0  0  0  0  0
   11.9149   -0.5393   -0.4685 H   0  0  0  0  0  0
   -1.4581   -0.8525   -1.5585 H   0  0  0  0  0  0
    0.0870   -1.6870   -1.5470 H   0  0  0  0  0  0
   -0.0680   -0.1204   -2.3295 H   0  0  0  0  0  0
   -0.6495   -1.5535    8.4499 H   0  0  0  0  0  0
   -1.2413    0.1074    8.4162 H   0  0  0  0  0  0
    0.4907   -0.1952    8.4121 H   0  0  0  0  0  0
  1  2  2  0  0  0
  1  4  1  0  0  0
  1 32  1  0  0  0
  2  6  1  0  0  0
  2 33  1  0  0  0
  3  5  1  0  0  0
  3  4  2  0  0  0
  3 34  1  0  0  0
  4 35  1  0  0  0
  5  6  1  0  0  0
  5  8  2  0  0  0
  6  7  1  0  0  0
  7  9  2  0  0  0
  8  9  1  0  0  0
  8 13  1  0  0  0
  9 10  1  0  0  0
 10 11  1  0  0  0
 10 36  1  0  0  0
 10 37  1  0  0  0
 11 12  1  0  0  0
 11 38  1  0  0  0
 11 39  1  0  0  0
 12 13  1  0  0  0
 12 14  1  0  0  0
 12 31  1  0  0  0
 13 40  1  0  0  0
 13 41  1  0  0  0
 14 15  1  0  0  0
 14 42  1  0  0  0
 15 16  1  0  0  0
 15 17  2  0  0  0
 16 18  2  0  0  0
 16 22  1  0  0  0
 18 19  1  0  0  0
 18 30  1  0  0  0
 19 20  2  0  0  0
 19 43  1  0  0  0
 20 21  1  0  0  0
 20 24  1  0  0  0
 21 22  2  0  0  0
 21 44  1  0  0  0
 22 23  1  0  0  0
 24 25  1  0  0  0
 24 28  1  0  0  0
 25 26  2  0  0  0
 25 45  1  0  0  0
 26 27  1  0  0  0
 27 28  2  0  0  0
 27 29  1  0  0  0
 29 46  1  0  0  0
 29 47  1  0  0  0
 29 48  1  0  0  0
 31 49  1  0  0  0
 31 50  1  0  0  0
 31 51  1  0  0  0
 32 52  1  0  0  0
 32 53  1  0  0  0
 32 54  1  0  0  0
M  END
> <chembl_id>
CHEMBL3628830

> <chembl_pref_name>
None

> <i_m_ct_stereo_status>
1

> <s_m_source_file>
sdf/actives_sanitized.sdf

> <i_m_source_file_index>
224

> <i_lp_mmshare_version>
49012

> <i_f3d_flags>
0

> <s_epik_input>
W2NIXTFbY0hdYyhbQ0gzXSlbY0hdbihjMTIpbmMzYzJbQ0gyXVtDQEBdKFtDSDNdKShbQ0gyXVtDSDJdMylbTkhdQyg9TyljNGMoQ2wpW2NIXWMoW2NIXWM0Q2wpLW41W2NIXW5jKG41KVtDSDNd

> <s_epik_cmdline>
J2VwaWtfcHl0aG9uJywgJy1waHQnLCAnMC41JywgJy1waCcsICc3LjUnLCAnLW50JywgJy1tYScsICcyMDAnLCAnLWltYWUnLCAnPGluZmlsZS5tYWU+JywgJy1vbWFlJywgJzxvdXRmaWxlLm1hZT4n

> <r_lp_tautomer_probability>
1

> <r_epik_Ionization_Penalty>
  0.0000

> <r_epik_Ionization_Penalty_Charging>
  0.0000

> <r_epik_Ionization_Penalty_Neutral>
  0.0000

> <r_epik_State_Penalty>
 -0.0000

> <r_epik_Charging_Adjusted_Penalty>
0

> <i_epik_Tot_Q>
0

> <i_epik_Tot_abs_Q>
0

> <s_lp_Force_Field>
OPLS3e

> <r_lp_Energy>
18.01202

> <b_lp_Chiralities_Consistent>
1

> <s_lp_Variant>
sdf/actives_sanitized.sdf:224-1

$$$$
sdf/actives_sanitized.sdf:225
                    3D
 Schrodinger Suite 2020-1.
 61 66  0  0  1  0            999 V2000
   -0.5503    1.5519    0.2174 C   0  0  0  0  0  0
   -1.6480    1.9042    1.0210 C   0  0  0  0  0  0
   -2.1101    3.2171    1.0598 C   0  0  0  0  0  0
   -1.4916    4.1920    0.2840 C   0  0  0  0  0  0
   -0.4175    3.8631   -0.5361 C   0  0  0  0  0  0
    0.0437    2.5507   -0.5736 C   0  0  0  0  0  0
   -0.2862   -5.1924   -4.0149 C   0  0  0  0  0  0
   -0.1266   -5.2791   -2.6325 C   0  0  0  0  0  0
   -0.5360   -2.7756   -3.8420 C   0  0  0  0  0  0
   -0.4925   -3.9444   -4.6075 C   0  0  0  0  0  0
   -0.3717   -2.8581   -2.4464 C   0  0  0  0  0  0
   -0.1703   -4.1306   -1.8865 N   0  0  0  0  0  0
   -0.0365   -4.0823   -0.5434 N   0  0  0  0  0  0
   -0.3520   -1.9766   -1.3372 C   0  0  0  0  0  0
   -0.1448   -2.8090   -0.2253 C   0  0  0  0  0  0
   -0.0566   -2.2909    1.2033 C   0  0  0  0  0  0
   -0.6080   -0.8432    1.2485 C   0  0  0  0  0  0
   -0.0357    0.0838    0.1193 C   0  0  1  0  0  0
   -0.5530   -0.4670   -1.2489 C   0  0  0  0  0  0
    1.4457    0.0892    0.1304 N   0  0  0  0  0  0
    2.2536    0.5190    1.1240 C   0  0  0  0  0  0
    3.7322    0.3000    0.8999 C   0  0  0  0  0  0
    1.8403    1.0697    2.1455 O   0  0  0  0  0  0
    4.2774    0.5204   -0.3746 C   0  0  0  0  0  0
    5.6353    0.3305   -0.6191 C   0  0  0  0  0  0
    6.4880   -0.0939    0.4073 C   0  0  0  0  0  0
    5.9497   -0.3265    1.6787 C   0  0  0  0  0  0
    4.5889   -0.1390    1.9316 C   0  0  0  0  0  0
    4.0280   -0.4950    3.5342 Cl  0  0  0  0  0  0
    7.8723   -0.2912    0.1717 N   0  0  0  0  0  0
    8.7989   -0.9822    0.9129 C   0  0  0  0  0  0
    9.9796   -0.9251    0.3544 N   0  0  0  0  0  0
    9.7427   -0.2025   -0.7288 C   0  0  0  0  0  0
    8.5053    0.2148   -0.8980 N   0  0  0  0  0  0
   10.8435    0.1527   -1.7032 C   0  0  0  0  0  0
   -0.2583   -6.4518   -4.8611 C   0  0  0  0  0  0
   -2.1599    1.1783    1.6325 H   0  0  0  0  0  0
   -2.9489    3.4770    1.6886 H   0  0  0  0  0  0
   -1.8517    5.2098    0.3141 H   0  0  0  0  0  0
    0.0538    4.6216   -1.1437 H   0  0  0  0  0  0
    0.8711    2.3110   -1.2255 H   0  0  0  0  0  0
    0.0294   -6.2095   -2.1050 H   0  0  0  0  0  0
   -0.6973   -1.8207   -4.3200 H   0  0  0  0  0  0
   -0.6226   -3.8736   -5.6780 H   0  0  0  0  0  0
   -0.6166   -2.9239    1.8926 H   0  0  0  0  0  0
    0.9804   -2.2994    1.5409 H   0  0  0  0  0  0
   -1.6928   -0.9114    1.1493 H   0  0  0  0  0  0
   -0.4301   -0.4148    2.2358 H   0  0  0  0  0  0
   -0.0462    0.0316   -2.0771 H   0  0  0  0  0  0
   -1.6149   -0.2484   -1.3749 H   0  0  0  0  0  0
    1.8665   -0.5643   -0.5135 H   0  0  0  0  0  0
    3.6533    0.8549   -1.1915 H   0  0  0  0  0  0
    6.0125    0.5158   -1.6145 H   0  0  0  0  0  0
    6.5825   -0.6555    2.4897 H   0  0  0  0  0  0
    8.5316   -1.4919    1.8263 H   0  0  0  0  0  0
   10.5908    0.9829   -2.3641 H   0  0  0  0  0  0
   11.1820   -0.7088   -2.2790 H   0  0  0  0  0  0
   11.7289    0.4832   -1.1587 H   0  0  0  0  0  0
   -0.7355   -6.2975   -5.8300 H   0  0  0  0  0  0
   -0.8033   -7.2551   -4.3637 H   0  0  0  0  0  0
    0.7678   -6.7861   -5.0167 H   0  0  0  0  0  0
  1  2  2  0  0  0
  1  6  1  0  0  0
  1 18  1  0  0  0
  2  3  1  0  0  0
  2 37  1  0  0  0
  3  4  2  0  0  0
  3 38  1  0  0  0
  4  5  1  0  0  0
  4 39  1  0  0  0
  5  6  2  0  0  0
  5 40  1  0  0  0
  6 41  1  0  0  0
  7  8  2  0  0  0
  7 10  1  0  0  0
  7 36  1  0  0  0
  8 12  1  0  0  0
  8 42  1  0  0  0
  9 11  1  0  0  0
  9 10  2  0  0  0
  9 43  1  0  0  0
 10 44  1  0  0  0
 11 12  1  0  0  0
 11 14  2  0  0  0
 12 13  1  0  0  0
 13 15  2  0  0  0
 14 15  1  0  0  0
 14 19  1  0  0  0
 15 16  1  0  0  0
 16 17  1  0  0  0
 16 45  1  0  0  0
 16 46  1  0  0  0
 17 18  1  0  0  0
 17 47  1  0  0  0
 17 48  1  0  0  0
 18 19  1  0  0  0
 18 20  1  0  0  0
 19 49  1  0  0  0
 19 50  1  0  0  0
 20 21  1  0  0  0
 20 51  1  0  0  0
 21 22  1  0  0  0
 21 23  2  0  0  0
 22 24  2  0  0  0
 22 28  1  0  0  0
 24 25  1  0  0  0
 24 52  1  0  0  0
 25 26  2  0  0  0
 25 53  1  0  0  0
 26 27  1  0  0  0
 26 30  1  0  0  0
 27 28  2  0  0  0
 27 54  1  0  0  0
 28 29  1  0  0  0
 30 31  1  0  0  0
 30 34  1  0  0  0
 31 32  2  0  0  0
 31 55  1  0  0  0
 32 33  1  0  0  0
 33 34  2  0  0  0
 33 35  1  0  0  0
 35 56  1  0  0  0
 35 57  1  0  0  0
 35 58  1  0  0  0
 36 59  1  0  0  0
 36 60  1  0  0  0
 36 61  1  0  0  0
M  END
> <chembl_id>
CHEMBL3628831

> <chembl_pref_name>
None

> <i_m_ct_stereo_status>
1

> <s_m_source_file>
sdf/actives_sanitized.sdf

> <i_m_source_file_index>
225

> <i_lp_mmshare_version>
49012

> <i_f3d_flags>
0

> <s_epik_input>
W2NIXTFbY0hdYyhbQ0gzXSlbY0hdbihjMTIpbmMzYzJbQ0gyXVtDQF0oW0NIMl1bQ0gyXTMpKGM0W2NIXVtjSF1bY0hdW2NIXVtjSF00KVtOSF1DKD1PKWM1W2NIXVtjSF1jKFtjSF1jNUNsKS1uNltjSF1uYyhuNilbQ0gzXQ==

> <s_epik_cmdline>
J2VwaWtfcHl0aG9uJywgJy1waHQnLCAnMC41JywgJy1waCcsICc3LjUnLCAnLW50JywgJy1tYScsICcyMDAnLCAnLWltYWUnLCAnPGluZmlsZS5tYWU+JywgJy1vbWFlJywgJzxvdXRmaWxlLm1hZT4n

> <r_lp_tautomer_probability>
1

> <r_epik_Ionization_Penalty>
  0.0001

> <r_epik_Ionization_Penalty_Charging>
  0.0000

> <r_epik_Ionization_Penalty_Neutral>
  0.0001

> <r_epik_State_Penalty>
 -0.0000

> <r_epik_Charging_Adjusted_Penalty>
0

> <i_epik_Tot_Q>
0

> <i_epik_Tot_abs_Q>
0

> <s_lp_Force_Field>
OPLS3e

> <r_lp_Energy>
42.128221

> <b_lp_Chiralities_Consistent>
1

> <s_lp_Variant>
sdf/actives_sanitized.sdf:225-1

$$$$
sdf/actives_sanitized.sdf:226
                    3D
 Schrodinger Suite 2020-1.
 60 65  0  0  1  0            999 V2000
   -0.5812    1.6468   -0.1358 C   0  0  0  0  0  0
   -0.5864   -5.7420   -3.1589 C   0  0  0  0  0  0
   -0.3369   -5.5757   -1.7973 C   0  0  0  0  0  0
   -0.8864   -3.3374   -3.4054 C   0  0  0  0  0  0
   -0.8633   -4.6247   -3.9498 C   0  0  0  0  0  0
   -0.6283   -3.1641   -2.0326 C   0  0  0  0  0  0
   -0.3607   -4.3122   -1.2679 N   0  0  0  0  0  0
   -0.1388   -4.0212    0.0328 N   0  0  0  0  0  0
   -0.5511   -2.0960   -1.1051 C   0  0  0  0  0  0
   -0.2515   -2.7126    0.1239 C   0  0  0  0  0  0
   -0.0730   -1.9387    1.4263 C   0  0  0  0  0  0
   -0.6475   -0.5141    1.2227 C   0  0  0  0  0  0
   -0.1143    0.1688   -0.0749 C   0  0  1  0  0  0
   -0.7642   -0.5916   -1.2719 C   0  0  0  0  0  0
    1.3561    0.1427   -0.2122 N   0  0  0  0  0  0
    2.2874    0.6582    0.6173 C   0  0  0  0  0  0
    3.7209    0.3852    0.2254 C   0  0  0  0  0  0
    2.0191    1.2903    1.6396 O   0  0  0  0  0  0
    4.0778   -0.8935   -0.2320 C   0  0  0  0  0  0
    5.3909   -1.1871   -0.5923 C   0  0  0  0  0  0
    6.3828   -0.2054   -0.5052 C   0  0  0  0  0  0
    6.0323    1.0788   -0.0751 C   0  0  0  0  0  0
    4.7187    1.3809    0.2908 C   0  0  0  0  0  0
    4.3915    3.0089    0.7924 Cl  0  0  0  0  0  0
    7.7079   -0.5043   -0.9004 N   0  0  0  0  0  0
   -0.5795   -7.1322   -3.7673 C   0  0  0  0  0  0
    8.3597   -1.7053   -0.6919 C   0  0  0  0  0  0
    9.5994   -1.7386   -1.0999 N   0  0  0  0  0  0
    8.6467    0.3143   -1.5192 C   0  0  0  0  0  0
    9.8099   -0.4923   -1.6196 C   0  0  0  0  0  0
   10.9766    0.0233   -2.1999 C   0  0  0  0  0  0
   10.9752    1.3413   -2.6867 C   0  0  0  0  0  0
    9.8028    2.1085   -2.5833 C   0  0  0  0  0  0
    8.6250    1.6256   -2.0093 C   0  0  0  0  0  0
   12.2124    1.9208   -3.3138 C   0  0  0  0  0  0
   13.2393    1.2049   -3.3617 O   0  5  0  0  0  0
   12.1564    3.0909   -3.7580 O   0  0  0  0  0  0
   -1.6693    1.7206   -0.1139 H   0  0  0  0  0  0
   -0.2433    2.1379   -1.0494 H   0  0  0  0  0  0
   -0.2142    2.2340    0.7061 H   0  0  0  0  0  0
   -0.1231   -6.3937   -1.1238 H   0  0  0  0  0  0
   -1.1009   -2.4869   -4.0353 H   0  0  0  0  0  0
   -1.0639   -4.7506   -5.0043 H   0  0  0  0  0  0
   -0.5819   -2.4298    2.2564 H   0  0  0  0  0  0
    0.9836   -1.8826    1.6906 H   0  0  0  0  0  0
   -1.7390   -0.5287    1.2339 H   0  0  0  0  0  0
   -0.3516    0.0718    2.0941 H   0  0  0  0  0  0
   -0.3424   -0.2442   -2.2165 H   0  0  0  0  0  0
   -1.8345   -0.3874   -1.3292 H   0  0  0  0  0  0
    1.6934   -0.3661   -1.0160 H   0  0  0  0  0  0
    3.3392   -1.6803   -0.3019 H   0  0  0  0  0  0
    5.6264   -2.1814   -0.9435 H   0  0  0  0  0  0
    6.7826    1.8514    0.0027 H   0  0  0  0  0  0
   -1.1788   -7.1727   -4.6779 H   0  0  0  0  0  0
   -1.0111   -7.8552   -3.0739 H   0  0  0  0  0  0
    0.4393   -7.4449   -3.9970 H   0  0  0  0  0  0
    7.8452   -2.5192   -0.2018 H   0  0  0  0  0  0
   11.8597   -0.5963   -2.2689 H   0  0  0  0  0  0
    9.7869    3.1215   -2.9608 H   0  0  0  0  0  0
    7.7445    2.2483   -1.9652 H   0  0  0  0  0  0
  1 13  1  0  0  0
  1 38  1  0  0  0
  1 39  1  0  0  0
  1 40  1  0  0  0
  2  3  2  0  0  0
  2  5  1  0  0  0
  2 26  1  0  0  0
  3  7  1  0  0  0
  3 41  1  0  0  0
  4  6  1  0  0  0
  4  5  2  0  0  0
  4 42  1  0  0  0
  5 43  1  0  0  0
  6  7  1  0  0  0
  6  9  2  0  0  0
  7  8  1  0  0  0
  8 10  2  0  0  0
  9 10  1  0  0  0
  9 14  1  0  0  0
 10 11  1  0  0  0
 11 12  1  0  0  0
 11 44  1  0  0  0
 11 45  1  0  0  0
 12 13  1  0  0  0
 12 46  1  0  0  0
 12 47  1  0  0  0
 13 14  1  0  0  0
 13 15  1  0  0  0
 14 48  1  0  0  0
 14 49  1  0  0  0
 15 16  1  0  0  0
 15 50  1  0  0  0
 16 17  1  0  0  0
 16 18  2  0  0  0
 17 19  2  0  0  0
 17 23  1  0  0  0
 19 20  1  0  0  0
 19 51  1  0  0  0
 20 21  2  0  0  0
 20 52  1  0  0  0
 21 22  1  0  0  0
 21 25  1  0  0  0
 22 23  2  0  0  0
 22 53  1  0  0  0
 23 24  1  0  0  0
 25 27  1  0  0  0
 25 29  1  0  0  0
 26 54  1  0  0  0
 26 55  1  0  0  0
 26 56  1  0  0  0
 27 28  2  0  0  0
 27 57  1  0  0  0
 28 30  1  0  0  0
 29 30  2  0  0  0
 29 34  1  0  0  0
 30 31  1  0  0  0
 31 32  2  0  0  0
 31 58  1  0  0  0
 32 33  1  0  0  0
 32 35  1  0  0  0
 33 34  2  0  0  0
 33 59  1  0  0  0
 34 60  1  0  0  0
 35 36  1  0  0  0
 35 37  2  0  0  0
M  CHG  1  36  -1
M  END
> <chembl_id>
CHEMBL3628955

> <chembl_pref_name>
None

> <i_m_ct_stereo_status>
1

> <s_m_source_file>
sdf/actives_sanitized.sdf

> <i_m_source_file_index>
226

> <i_lp_mmshare_version>
49012

> <i_f3d_flags>
0

> <s_epik_input>
W2NIXTFbY0hdYyhbQ0gzXSlbY0hdbihjMTIpbmMzYzJbQ0gyXVtDQEBdKFtDSDNdKShbQ0gyXVtDSDJdMylbTkhdQyg9TyljNFtjSF1bY0hdYyhbY0hdYzRDbCktbjVbY0hdbmMoYzU2KVtjSF1jKFtjSF1bY0hdNilDKD1PKVtPSF0=

> <s_epik_cmdline>
J2VwaWtfcHl0aG9uJywgJy1waHQnLCAnMC41JywgJy1waCcsICc3LjUnLCAnLW50JywgJy1tYScsICcyMDAnLCAnLWltYWUnLCAnPGluZmlsZS5tYWU+JywgJy1vbWFlJywgJzxvdXRmaWxlLm1hZT4n

> <r_epik_Ionization_Penalty>
  0.0107

> <r_epik_Ionization_Penalty_Charging>
  0.0001

> <r_epik_Ionization_Penalty_Neutral>
  0.0106

> <r_epik_State_Penalty>
  0.0081

> <r_epik_Charging_Adjusted_Penalty>
0.0082316985781085

> <i_epik_Tot_Q>
-1

> <i_epik_Tot_abs_Q>
1

> <s_lp_Force_Field>
OPLS3e

> <r_lp_Energy>
42.905599

> <b_lp_Chiralities_Consistent>
1

> <s_lp_Variant>
sdf/actives_sanitized.sdf:226-1

$$$$
sdf/actives_sanitized.sdf:227
                    3D
 Schrodinger Suite 2020-1.
 62 67  0  0  1  0            999 V2000
   -0.5582    1.6347   -0.0233 C   0  0  0  0  0  0
   -1.5428    2.2001    0.8052 C   0  0  0  0  0  0
   -1.9250    3.5300    0.6528 C   0  0  0  0  0  0
   -1.3388    4.3092   -0.3393 C   0  0  0  0  0  0
   -0.3773    3.7664   -1.1851 C   0  0  0  0  0  0
    0.0036    2.4369   -1.0313 C   0  0  0  0  0  0
   -0.3787   -5.1070   -3.7960 C   0  0  0  0  0  0
   -0.2032   -5.3215   -2.4287 C   0  0  0  0  0  0
   -0.6825   -2.7152   -3.4447 C   0  0  0  0  0  0
   -0.6129   -3.8237   -4.2860 C   0  0  0  0  0  0
   -0.5033   -2.9356   -2.0718 C   0  0  0  0  0  0
   -0.2653   -4.2340   -1.5379 C   0  0  0  0  0  0
   -0.1379   -4.0970   -0.1105 C   0  0  0  0  0  0
   -0.5099   -2.0522   -1.0087 N   0  0  0  0  0  0
   -0.3192   -2.7493    0.1778 C   0  0  0  0  0  0
   -0.2619   -2.0264    1.5235 C   0  0  0  0  0  0
   -0.6883   -0.5502    1.3805 C   0  0  0  0  0  0
   -0.1280    0.1420    0.0979 C   0  0  1  0  0  0
   -0.7753   -0.6074   -1.1040 C   0  0  0  0  0  0
    1.3495    0.0625    0.0147 N   0  0  0  0  0  0
    2.2454    0.5866    0.8746 C   0  0  0  0  0  0
    3.6810    0.3069    0.5222 C   0  0  0  0  0  0
    1.9613    1.2713    1.8570 O   0  0  0  0  0  0
    4.3348   -0.8352    1.0256 C   0  0  0  0  0  0
    5.6664   -1.0842    0.6916 C   0  0  0  0  0  0
    6.3700   -0.2077   -0.1389 C   0  0  0  0  0  0
    5.7250    0.9278   -0.6370 C   0  0  0  0  0  0
    4.3929    1.1897   -0.3144 C   0  0  0  0  0  0
    3.6731    2.6207   -0.9807 Cl  0  0  0  0  0  0
    7.7176   -0.4662   -0.4699 N   0  0  0  0  0  0
   -0.3090   -6.2864   -4.7493 C   0  0  0  0  0  0
    3.5470   -1.9745    2.0684 Cl  0  0  0  0  0  0
    8.3714   -1.6764   -0.5530 C   0  0  0  0  0  0
    9.6290   -1.5371   -0.8896 N   0  0  0  0  0  0
    9.8535   -0.1728   -1.0436 N   0  0  0  0  0  0
    8.7164    0.4266   -0.7930 C   0  0  0  0  0  0
    0.1425   -5.1940    0.9041 C   0  0  0  0  0  0
   -0.8649   -5.3091    1.7686 F   0  0  0  0  0  0
    0.3169   -6.3856    0.3353 F   0  0  0  0  0  0
    1.2454   -4.9227    1.6016 F   0  0  0  0  0  0
   -2.0257    1.6315    1.5841 H   0  0  0  0  0  0
   -2.6758    3.9551    1.3026 H   0  0  0  0  0  0
   -1.6358    5.3409   -0.4568 H   0  0  0  0  0  0
    0.0694    4.3728   -1.9591 H   0  0  0  0  0  0
    0.7443    2.0293   -1.7039 H   0  0  0  0  0  0
   -0.0251   -6.3228   -2.0667 H   0  0  0  0  0  0
   -0.8649   -1.7306   -3.8491 H   0  0  0  0  0  0
   -0.7455   -3.6743   -5.3481 H   0  0  0  0  0  0
   -0.8946   -2.5228    2.2599 H   0  0  0  0  0  0
    0.7520   -2.0696    1.9170 H   0  0  0  0  0  0
   -1.7795   -0.5399    1.3530 H   0  0  0  0  0  0
   -0.4122    0.0008    2.2808 H   0  0  0  0  0  0
   -0.3905   -0.2303   -2.0530 H   0  0  0  0  0  0
   -1.8570   -0.4615   -1.1221 H   0  0  0  0  0  0
    1.6960   -0.6888   -0.5636 H   0  0  0  0  0  0
    6.1503   -1.9631    1.0928 H   0  0  0  0  0  0
    6.2509    1.6137   -1.2857 H   0  0  0  0  0  0
   -0.3835   -5.9805   -5.7938 H   0  0  0  0  0  0
   -1.1118   -6.9922   -4.5339 H   0  0  0  0  0  0
    0.6350   -6.8171   -4.6202 H   0  0  0  0  0  0
    7.8524   -2.6039   -0.3609 H   0  0  0  0  0  0
    8.5281    1.4900   -0.8118 H   0  0  0  0  0  0
  1  2  2  0  0  0
  1  6  1  0  0  0
  1 18  1  0  0  0
  2  3  1  0  0  0
  2 41  1  0  0  0
  3  4  2  0  0  0
  3 42  1  0  0  0
  4  5  1  0  0  0
  4 43  1  0  0  0
  5  6  2  0  0  0
  5 44  1  0  0  0
  6 45  1  0  0  0
  7  8  2  0  0  0
  7 10  1  0  0  0
  7 31  1  0  0  0
  8 12  1  0  0  0
  8 46  1  0  0  0
  9 11  1  0  0  0
  9 10  2  0  0  0
  9 47  1  0  0  0
 10 48  1  0  0  0
 11 12  2  0  0  0
 11 14  1  0  0  0
 12 13  1  0  0  0
 13 15  2  0  0  0
 13 37  1  0  0  0
 14 15  1  0  0  0
 14 19  1  0  0  0
 15 16  1  0  0  0
 16 17  1  0  0  0
 16 49  1  0  0  0
 16 50  1  0  0  0
 17 18  1  0  0  0
 17 51  1  0  0  0
 17 52  1  0  0  0
 18 19  1  0  0  0
 18 20  1  0  0  0
 19 53  1  0  0  0
 19 54  1  0  0  0
 20 21  1  0  0  0
 20 55  1  0  0  0
 21 22  1  0  0  0
 21 23  2  0  0  0
 22 24  2  0  0  0
 22 28  1  0  0  0
 24 25  1  0  0  0
 24 32  1  0  0  0
 25 26  2  0  0  0
 25 56  1  0  0  0
 26 27  1  0  0  0
 26 30  1  0  0  0
 27 28  2  0  0  0
 27 57  1  0  0  0
 28 29  1  0  0  0
 30 33  1  0  0  0
 30 36  1  0  0  0
 31 58  1  0  0  0
 31 59  1  0  0  0
 31 60  1  0  0  0
 33 34  2  0  0  0
 33 61  1  0  0  0
 34 35  1  0  0  0
 35 36  2  0  0  0
 36 62  1  0  0  0
 37 38  1  0  0  0
 37 39  1  0  0  0
 37 40  1  0  0  0
M  END
> <chembl_id>
CHEMBL3628959

> <chembl_pref_name>
None

> <i_m_ct_stereo_status>
1

> <s_m_source_file>
sdf/actives_sanitized.sdf

> <i_m_source_file_index>
227

> <i_lp_mmshare_version>
49012

> <i_f3d_flags>
0

> <s_epik_input>
W2NIXTFbY0hdYyhbQ0gzXSlbY0hdYyhjMTIpYyhDKEYpKEYpRiljM24yW0NIMl1bQ0BdKFtDSDJdW0NIMl0zKShjNFtjSF1bY0hdW2NIXVtjSF1bY0hdNClbTkhdQyg9TyljNWMoQ2wpW2NIXWMoW2NIXWM1Q2wpLW42W2NIXW5uW2NIXTY=

> <s_epik_cmdline>
J2VwaWtfcHl0aG9uJywgJy1waHQnLCAnMC41JywgJy1waCcsICc3LjUnLCAnLW50JywgJy1tYScsICcyMDAnLCAnLWltYWUnLCAnPGluZmlsZS5tYWU+JywgJy1vbWFlJywgJzxvdXRmaWxlLm1hZT4n

> <r_lp_tautomer_probability>
1

> <r_epik_Ionization_Penalty>
  0.0002

> <r_epik_Ionization_Penalty_Charging>
  0.0000

> <r_epik_Ionization_Penalty_Neutral>
  0.0002

> <r_epik_State_Penalty>
 -0.0000

> <r_epik_Charging_Adjusted_Penalty>
0

> <i_epik_Tot_Q>
0

> <i_epik_Tot_abs_Q>
0

> <s_lp_Force_Field>
OPLS3e

> <r_lp_Energy>
43.443796

> <b_lp_Chiralities_Consistent>
1

> <s_lp_Variant>
sdf/actives_sanitized.sdf:227-1

$$$$
sdf/actives_sanitized.sdf:228
                    3D
 Schrodinger Suite 2020-1.
 65 69  0  0  1  0            999 V2000
   -5.2839    1.6635   -0.7035 C   0  0  0  0  0  0
   -4.1475    0.9437   -1.4581 C   0  0  2  0  0  0
   -2.7700    1.6342   -1.2309 C   0  0  0  0  0  0
   -2.1470    1.4136    0.1735 C   0  0  0  0  0  0
   -0.5963    1.3236    0.1893 C   0  0  0  0  0  0
    0.0082   -0.0962   -0.0629 C   0  0  2  0  0  0
    1.4881   -0.1371    0.0520 N   0  0  0  0  0  0
    2.2994    0.9795   -0.5201 C   0  0  0  0  0  0
    3.7396    0.5558   -0.9160 C   0  0  0  0  0  0
    4.3282   -0.2964    0.1902 C   0  0  0  0  0  0
    3.5088   -1.1361    0.8506 C   0  0  0  0  0  0
    2.0782   -1.2225    0.6530 C   0  0  0  0  0  0
    1.4676   -2.2317    1.0103 O   0  0  0  0  0  0
    5.7985   -0.4338    0.3085 C   0  0  0  0  0  0
    6.5917    0.6116    0.8204 C   0  0  0  0  0  0
    6.0273    1.8036    1.2848 N   0  0  0  0  0  0
    7.9794    0.4715    0.8877 C   0  0  0  0  0  0
    8.5917   -0.6975    0.4437 C   0  0  0  0  0  0
    7.8205   -1.7351   -0.0746 C   0  0  0  0  0  0
    8.5971   -3.1762   -0.6283 Cl  0  0  0  0  0  0
    6.4310   -1.6034   -0.1478 C   0  0  0  0  0  0
    5.6960   -2.6150   -0.6713 F   0  0  0  0  0  0
   -0.5200   -0.7282   -1.3544 C   0  0  0  0  0  0
   -1.7158   -1.4484   -1.3240 C   0  0  0  0  0  0
   -2.3397   -1.7853   -2.5279 C   0  0  0  0  0  0
   -1.6732   -1.5077   -3.7277 C   0  0  0  0  0  0
   -0.4305   -0.8729   -3.6765 C   0  0  0  0  0  0
    0.1415   -0.4647   -2.5151 N   0  0  0  0  0  0
   -3.7168   -2.3378   -2.5048 C   0  0  0  0  0  0
   -3.9289   -3.6039   -1.9449 C   0  0  0  0  0  0
   -5.2064   -4.1580   -1.8855 C   0  0  0  0  0  0
   -6.2962   -3.4489   -2.3839 C   0  0  0  0  0  0
   -6.1095   -2.1833   -2.9354 C   0  0  0  0  0  0
   -4.8327   -1.6143   -2.9851 C   0  0  0  0  0  0
   -4.7320   -0.3444   -3.5761 N   0  0  0  0  0  0
   -4.4675    0.8374   -2.9732 C   0  0  0  0  0  0
   -4.4798    1.8684   -3.6448 O   0  0  0  0  0  0
   -6.2379    1.1514   -0.8385 H   0  0  0  0  0  0
   -5.4122    2.6912   -1.0468 H   0  0  0  0  0  0
   -5.0859    1.6963    0.3683 H   0  0  0  0  0  0
   -4.0920   -0.0589   -1.0406 H   0  0  0  0  0  0
   -2.0684    1.2884   -1.9895 H   0  0  0  0  0  0
   -2.8521    2.7054   -1.4236 H   0  0  0  0  0  0
   -2.4621    2.2386    0.8138 H   0  0  0  0  0  0
   -2.5583    0.5216    0.6473 H   0  0  0  0  0  0
   -0.1951    2.0546   -0.5128 H   0  0  0  0  0  0
   -0.2575    1.6521    1.1729 H   0  0  0  0  0  0
   -0.3919   -0.7078    0.7486 H   0  0  0  0  0  0
    1.7697    1.5125   -1.3093 H   0  0  0  0  0  0
    2.4014    1.7035    0.2893 H   0  0  0  0  0  0
    3.6812   -0.0420   -1.8267 H   0  0  0  0  0  0
    4.3583    1.4259   -1.1372 H   0  0  0  0  0  0
    3.9399   -1.8291    1.5599 H   0  0  0  0  0  0
    6.6248    2.5191    1.6728 H   0  0  0  0  0  0
    5.0234    1.9128    1.2751 H   0  0  0  0  0  0
    8.5922    1.2683    1.2846 H   0  0  0  0  0  0
    9.6662   -0.7949    0.5002 H   0  0  0  0  0  0
   -2.2200   -1.6264   -0.3850 H   0  0  0  0  0  0
   -2.1181   -1.7594   -4.6794 H   0  0  0  0  0  0
    0.1082   -0.6441   -4.5841 H   0  0  0  0  0  0
   -3.0939   -4.1690   -1.5556 H   0  0  0  0  0  0
   -5.3507   -5.1383   -1.4556 H   0  0  0  0  0  0
   -7.2858   -3.8798   -2.3425 H   0  0  0  0  0  0
   -6.9649   -1.6444   -3.3178 H   0  0  0  0  0  0
   -4.9975   -0.3031   -4.5493 H   0  0  0  0  0  0
  1  2  1  0  0  0
  1 38  1  0  0  0
  1 39  1  0  0  0
  1 40  1  0  0  0
  2  3  1  0  0  0
  2 36  1  0  0  0
  2 41  1  0  0  0
  3  4  1  0  0  0
  3 42  1  0  0  0
  3 43  1  0  0  0
  4  5  1  0  0  0
  4 44  1  0  0  0
  4 45  1  0  0  0
  5  6  1  0  0  0
  5 46  1  0  0  0
  5 47  1  0  0  0
  6  7  1  0  0  0
  6 23  1  0  0  0
  6 48  1  0  0  0
  7  8  1  0  0  0
  7 12  1  0  0  0
  8  9  1  0  0  0
  8 49  1  0  0  0
  8 50  1  0  0  0
  9 10  1  0  0  0
  9 51  1  0  0  0
  9 52  1  0  0  0
 10 11  2  0  0  0
 10 14  1  0  0  0
 11 12  1  0  0  0
 11 53  1  0  0  0
 12 13  2  0  0  0
 14 15  2  0  0  0
 14 21  1  0  0  0
 15 16  1  0  0  0
 15 17  1  0  0  0
 16 54  1  0  0  0
 16 55  1  0  0  0
 17 18  2  0  0  0
 17 56  1  0  0  0
 18 19  1  0  0  0
 18 57  1  0  0  0
 19 20  1  0  0  0
 19 21  2  0  0  0
 21 22  1  0  0  0
 23 24  1  0  0  0
 23 28  2  0  0  0
 24 25  2  0  0  0
 24 58  1  0  0  0
 25 26  1  0  0  0
 25 29  1  0  0  0
 26 27  2  0  0  0
 26 59  1  0  0  0
 27 28  1  0  0  0
 27 60  1  0  0  0
 29 30  2  0  0  0
 29 34  1  0  0  0
 30 31  1  0  0  0
 30 61  1  0  0  0
 31 32  2  0  0  0
 31 62  1  0  0  0
 32 33  1  0  0  0
 32 63  1  0  0  0
 33 34  2  0  0  0
 33 64  1  0  0  0
 34 35  1  0  0  0
 35 36  1  0  0  0
 35 65  1  0  0  0
 36 37  2  0  0  0
M  END
> <chembl_id>
CHEMBL4108320

> <chembl_pref_name>
None

> <i_m_ct_stereo_status>
1

> <s_m_source_file>
sdf/actives_sanitized.sdf

> <i_m_source_file_index>
228

> <i_lp_mmshare_version>
49012

> <i_f3d_flags>
0

> <s_epik_input>
bjFbY0hdW2NIXWMoW2NIXWMxMiljM2MoW2NIXVtjSF1bY0hdW2NIXTMpW05IXUMoPU8pW0NASF0oW0NIM10pW0NIMl1bQ0gyXVtDSDJdW0NAQEhdMk40W0NIMl1bQ0gyXUMoPVtDSF1DND1PKWM1YyhbTkgyXSlbY0hdW2NIXWMoQ2wpYzVG

> <s_epik_cmdline>
J2VwaWtfcHl0aG9uJywgJy1waHQnLCAnMC41JywgJy1waCcsICc3LjUnLCAnLW50JywgJy1tYScsICcyMDAnLCAnLWltYWUnLCAnPGluZmlsZS5tYWU+JywgJy1vbWFlJywgJzxvdXRmaWxlLm1hZT4n

> <r_lp_tautomer_probability>
1

> <r_epik_Ionization_Penalty>
  0.0002

> <r_epik_Ionization_Penalty_Charging>
  0.0000

> <r_epik_Ionization_Penalty_Neutral>
  0.0002

> <r_epik_State_Penalty>
 -0.0000

> <r_epik_Charging_Adjusted_Penalty>
0

> <i_epik_Tot_Q>
0

> <i_epik_Tot_abs_Q>
0

> <s_lp_Force_Field>
OPLS3e

> <r_lp_Energy>
88.705816

> <b_lp_Chiralities_Consistent>
1

> <s_lp_Variant>
sdf/actives_sanitized.sdf:228-1

$$$$
sdf/actives_sanitized.sdf:229
                    3D
 Schrodinger Suite 2020-1.
 63 67  0  0  1  0            999 V2000
   -5.0037    3.2087   -0.9040 C   0  0  0  0  0  0
   -3.7741    2.2736   -0.9215 C   0  0  2  0  0  0
   -2.8315    2.6070    0.2874 C   0  0  0  0  0  0
   -1.8264    1.5216    0.7618 C   0  0  0  0  0  0
   -0.5188    1.3724   -0.0632 C   0  0  0  0  0  0
    0.0520   -0.0841   -0.1571 C   0  0  2  0  0  0
    1.5342   -0.0999   -0.0842 N   0  0  0  0  0  0
    2.3004    0.7908   -1.0039 C   0  0  0  0  0  0
    3.7279    0.2580   -1.2983 C   0  0  0  0  0  0
    4.3815   -0.1484    0.0128 C   0  0  0  0  0  0
    3.5963   -0.7185    0.9501 C   0  0  0  0  0  0
    2.1625   -0.8891    0.8468 C   0  0  0  0  0  0
    1.5861   -1.7150    1.5566 O   0  0  0  0  0  0
    5.8609   -0.1883    0.1489 C   0  0  0  0  0  0
    6.6728   -0.6888   -0.8848 C   0  0  0  0  0  0
    6.1297   -1.1745   -2.0257 F   0  0  0  0  0  0
    8.0607   -0.7136   -0.7497 C   0  0  0  0  0  0
    8.6614   -0.2418    0.4137 C   0  0  0  0  0  0
    7.8747    0.2593    1.4482 C   0  0  0  0  0  0
    8.6348    0.8443    2.8858 Cl  0  0  0  0  0  0
    6.4829    0.2894    1.3178 C   0  0  0  0  0  0
    5.7383    0.8025    2.3277 F   0  0  0  0  0  0
   -0.5220   -0.8500   -1.3708 C   0  0  0  0  0  0
   -1.8777   -0.7380   -1.6696 C   0  0  0  0  0  0
   -2.3897   -1.2441   -2.8594 C   0  0  0  0  0  0
   -1.5348   -1.9835   -3.6842 C   0  0  0  0  0  0
   -0.1979   -2.1309   -3.2995 C   0  0  0  0  0  0
    0.3175   -1.5635   -2.1756 N   0  0  0  0  0  0
   -3.8008   -0.9236   -3.2059 C   0  0  0  0  0  0
   -4.7401   -1.9526   -3.3720 C   0  0  0  0  0  0
   -4.3641   -3.2493   -3.2686 F   0  0  0  0  0  0
   -6.0799   -1.6571   -3.6242 C   0  0  0  0  0  0
   -6.5014   -0.3330   -3.7177 C   0  0  0  0  0  0
   -5.5820    0.7027   -3.5709 C   0  0  0  0  0  0
   -4.2373    0.4182   -3.3114 C   0  0  0  0  0  0
   -3.3196    1.4837   -3.2975 N   0  0  0  0  0  0
   -3.0794    2.3721   -2.3062 C   0  0  0  0  0  0
   -2.2892    3.2929   -2.5096 O   0  0  0  0  0  0
   -5.7016    2.9824   -1.7105 H   0  0  0  0  0  0
   -4.7163    4.2566   -1.0067 H   0  0  0  0  0  0
   -5.5607    3.1109    0.0286 H   0  0  0  0  0  0
   -4.1580    1.2639   -0.7775 H   0  0  0  0  0  0
   -2.3061    3.5494    0.1225 H   0  0  0  0  0  0
   -3.4702    2.8047    1.1500 H   0  0  0  0  0  0
   -1.5283    1.7683    1.7822 H   0  0  0  0  0  0
   -2.3484    0.5734    0.8805 H   0  0  0  0  0  0
   -0.6466    1.7672   -1.0697 H   0  0  0  0  0  0
    0.2183    2.0383    0.3887 H   0  0  0  0  0  0
   -0.3497   -0.6185    0.7052 H   0  0  0  0  0  0
    1.7248    1.0616   -1.8898 H   0  0  0  0  0  0
    2.4401    1.7243   -0.4572 H   0  0  0  0  0  0
    3.6311   -0.6162   -1.9438 H   0  0  0  0  0  0
    4.3192    1.0039   -1.8304 H   0  0  0  0  0  0
    4.0561   -1.1159    1.8443 H   0  0  0  0  0  0
    8.6733   -1.1042   -1.5489 H   0  0  0  0  0  0
    9.7371   -0.2655    0.5105 H   0  0  0  0  0  0
   -2.5438   -0.2004   -1.0258 H   0  0  0  0  0  0
   -1.8900   -2.4119   -4.6101 H   0  0  0  0  0  0
    0.4924   -2.6883   -3.9152 H   0  0  0  0  0  0
   -6.7952   -2.4575   -3.7441 H   0  0  0  0  0  0
   -7.5387   -0.1096   -3.9190 H   0  0  0  0  0  0
   -5.9154    1.7242   -3.6836 H   0  0  0  0  0  0
   -2.7547    1.5722   -4.1297 H   0  0  0  0  0  0
  1  2  1  0  0  0
  1 39  1  0  0  0
  1 40  1  0  0  0
  1 41  1  0  0  0
  2  3  1  0  0  0
  2 37  1  0  0  0
  2 42  1  0  0  0
  3  4  1  0  0  0
  3 43  1  0  0  0
  3 44  1  0  0  0
  4  5  1  0  0  0
  4 45  1  0  0  0
  4 46  1  0  0  0
  5  6  1  0  0  0
  5 47  1  0  0  0
  5 48  1  0  0  0
  6  7  1  0  0  0
  6 23  1  0  0  0
  6 49  1  0  0  0
  7  8  1  0  0  0
  7 12  1  0  0  0
  8  9  1  0  0  0
  8 50  1  0  0  0
  8 51  1  0  0  0
  9 10  1  0  0  0
  9 52  1  0  0  0
  9 53  1  0  0  0
 10 11  2  0  0  0
 10 14  1  0  0  0
 11 12  1  0  0  0
 11 54  1  0  0  0
 12 13  2  0  0  0
 14 15  2  0  0  0
 14 21  1  0  0  0
 15 16  1  0  0  0
 15 17  1  0  0  0
 17 18  2  0  0  0
 17 55  1  0  0  0
 18 19  1  0  0  0
 18 56  1  0  0  0
 19 20  1  0  0  0
 19 21  2  0  0  0
 21 22  1  0  0  0
 23 24  1  0  0  0
 23 28  2  0  0  0
 24 25  2  0  0  0
 24 57  1  0  0  0
 25 26  1  0  0  0
 25 29  1  0  0  0
 26 27  2  0  0  0
 26 58  1  0  0  0
 27 28  1  0  0  0
 27 59  1  0  0  0
 29 30  2  0  0  0
 29 35  1  0  0  0
 30 31  1  0  0  0
 30 32  1  0  0  0
 32 33  2  0  0  0
 32 60  1  0  0  0
 33 34  1  0  0  0
 33 61  1  0  0  0
 34 35  2  0  0  0
 34 62  1  0  0  0
 35 36  1  0  0  0
 36 37  1  0  0  0
 36 63  1  0  0  0
 37 38  2  0  0  0
M  END
> <chembl_id>
CHEMBL4109563

> <chembl_pref_name>
None

> <i_m_ct_stereo_status>
1

> <s_m_source_file>
sdf/actives_sanitized.sdf

> <i_m_source_file_index>
229

> <i_lp_mmshare_version>
49012

> <i_f3d_flags>
0

> <s_epik_input>
bjFbY0hdW2NIXWMoW2NIXWMxMiljM2MoW2NIXVtjSF1bY0hdYzNGKVtOSF1DKD1PKVtDQEhdKFtDSDNdKVtDSDJdW0NIMl1bQ0gyXVtDQEBIXTJONFtDSDJdW0NIMl1DKD1bQ0hdQzQ9TyljNWMoRilbY0hdW2NIXWMoQ2wpYzVG

> <s_epik_cmdline>
J2VwaWtfcHl0aG9uJywgJy1waHQnLCAnMC41JywgJy1waCcsICc3LjUnLCAnLW50JywgJy1tYScsICcyMDAnLCAnLWltYWUnLCAnPGluZmlsZS5tYWU+JywgJy1vbWFlJywgJzxvdXRmaWxlLm1hZT4n

> <r_lp_tautomer_probability>
1

> <r_epik_Ionization_Penalty>
  0.0001

> <r_epik_Ionization_Penalty_Charging>
  0.0000

> <r_epik_Ionization_Penalty_Neutral>
  0.0001

> <r_epik_State_Penalty>
 -0.0000

> <r_epik_Charging_Adjusted_Penalty>
0

> <i_epik_Tot_Q>
0

> <i_epik_Tot_abs_Q>
0

> <s_lp_Force_Field>
OPLS3e

> <r_lp_Energy>
95.607114

> <b_lp_Chiralities_Consistent>
1

> <s_lp_Variant>
sdf/actives_sanitized.sdf:229-1

$$$$
sdf/actives_sanitized.sdf:230
                    3D
 Schrodinger Suite 2020-1.
 69 74  0  0  1  0            999 V2000
   -4.9599    3.2518   -1.2040 C   0  0  0  0  0  0
   -3.7435    2.3034   -1.1198 C   0  0  2  0  0  0
   -2.8332    2.7064    0.0930 C   0  0  0  0  0  0
   -1.8494    1.6487    0.6669 C   0  0  0  0  0  0
   -0.5235    1.4332   -0.1135 C   0  0  0  0  0  0
    0.0432   -0.0280   -0.0879 C   0  0  2  0  0  0
    1.5246   -0.0330   -0.0098 N   0  0  0  0  0  0
    2.2888    0.7437   -1.0289 C   0  0  0  0  0  0
    3.7179    0.1820   -1.2537 C   0  0  0  0  0  0
    4.3697   -0.0544    0.0986 C   0  0  0  0  0  0
    3.5867   -0.4992    1.1027 C   0  0  0  0  0  0
    2.1530   -0.6843    1.0221 C   0  0  0  0  0  0
    1.5775   -1.4087    1.8357 O   0  0  0  0  0  0
    5.8470   -0.0839    0.2372 C   0  0  0  0  0  0
    6.6487   -0.7770   -0.6863 C   0  0  0  0  0  0
    6.0944   -1.4567   -1.7175 F   0  0  0  0  0  0
    8.0364   -0.7945   -0.5482 C   0  0  0  0  0  0
    8.6453   -0.1229    0.5083 C   0  0  0  0  0  0
    7.8671    0.5714    1.4322 C   0  0  0  0  0  0
    8.6372    1.4043    2.7359 Cl  0  0  0  0  0  0
    6.4753    0.5928    1.2983 C   0  0  0  0  0  0
    5.7358    1.2873    2.1974 F   0  0  0  0  0  0
   -0.5205   -0.8938   -1.2389 C   0  0  0  0  0  0
   -1.8596   -0.7671   -1.5986 C   0  0  0  0  0  0
   -2.3520   -1.3731   -2.7489 C   0  0  0  0  0  0
   -1.5000   -2.2235   -3.4620 C   0  0  0  0  0  0
   -0.1824   -2.3760   -3.0161 C   0  0  0  0  0  0
    0.3171   -1.7143   -1.9370 N   0  0  0  0  0  0
   -3.7393   -1.0472   -3.1713 C   0  0  0  0  0  0
   -4.6815   -2.0754   -3.2973 C   0  0  0  0  0  0
   -6.0085   -1.7824   -3.6105 C   0  0  0  0  0  0
   -7.0497   -2.8169   -3.7386 C   0  0  0  0  0  0
   -8.3227   -2.4744   -4.0416 C   0  0  0  0  0  0
   -8.7537   -1.0989   -4.2625 C   0  0  0  0  0  0
   -9.9055   -0.7770   -4.5423 O   0  0  0  0  0  0
   -7.7559   -0.1857   -4.1316 N   0  0  0  0  0  0
   -6.4095   -0.4536   -3.8143 C   0  0  0  0  0  0
   -5.4803    0.5790   -3.7131 C   0  0  0  0  0  0
   -4.1503    0.2908   -3.3877 C   0  0  0  0  0  0
   -3.2171    1.3415   -3.4161 N   0  0  0  0  0  0
   -3.0045    2.2996   -2.4853 C   0  0  0  0  0  0
   -2.2023    3.2001   -2.7285 O   0  0  0  0  0  0
   -5.6402    2.9742   -2.0095 H   0  0  0  0  0  0
   -4.6550    4.2852   -1.3774 H   0  0  0  0  0  0
   -5.5413    3.2315   -0.2816 H   0  0  0  0  0  0
   -4.1465    1.3109   -0.9195 H   0  0  0  0  0  0
   -2.2959    3.6328   -0.1179 H   0  0  0  0  0  0
   -3.4950    2.9642    0.9218 H   0  0  0  0  0  0
   -1.5740    1.9642    1.6746 H   0  0  0  0  0  0
   -2.3810    0.7141    0.8388 H   0  0  0  0  0  0
   -0.6242    1.7537   -1.1488 H   0  0  0  0  0  0
    0.2067    2.1271    0.3068 H   0  0  0  0  0  0
   -0.3641   -0.4915    0.8121 H   0  0  0  0  0  0
    1.7144    0.9065   -1.9415 H   0  0  0  0  0  0
    2.4269    1.7354   -0.5952 H   0  0  0  0  0  0
    3.6245   -0.7661   -1.7853 H   0  0  0  0  0  0
    4.3090    0.8563   -1.8745 H   0  0  0  0  0  0
    4.0490   -0.7770    2.0396 H   0  0  0  0  0  0
    8.6429   -1.3338   -1.2608 H   0  0  0  0  0  0
    9.7207   -0.1429    0.6081 H   0  0  0  0  0  0
   -2.5265   -0.1470   -1.0362 H   0  0  0  0  0  0
   -1.8403   -2.7324   -4.3520 H   0  0  0  0  0  0
    0.5059   -3.0167   -3.5472 H   0  0  0  0  0  0
   -4.3856   -3.1012   -3.1268 H   0  0  0  0  0  0
   -6.8009   -3.8577   -3.5887 H   0  0  0  0  0  0
   -9.0686   -3.2510   -4.1289 H   0  0  0  0  0  0
   -8.0364    0.7716   -4.2826 H   0  0  0  0  0  0
   -5.7855    1.5972   -3.9079 H   0  0  0  0  0  0
   -2.6218    1.3628   -4.2311 H   0  0  0  0  0  0
  1  2  1  0  0  0
  1 43  1  0  0  0
  1 44  1  0  0  0
  1 45  1  0  0  0
  2  3  1  0  0  0
  2 41  1  0  0  0
  2 46  1  0  0  0
  3  4  1  0  0  0
  3 47  1  0  0  0
  3 48  1  0  0  0
  4  5  1  0  0  0
  4 49  1  0  0  0
  4 50  1  0  0  0
  5  6  1  0  0  0
  5 51  1  0  0  0
  5 52  1  0  0  0
  6  7  1  0  0  0
  6 23  1  0  0  0
  6 53  1  0  0  0
  7  8  1  0  0  0
  7 12  1  0  0  0
  8  9  1  0  0  0
  8 54  1  0  0  0
  8 55  1  0  0  0
  9 10  1  0  0  0
  9 56  1  0  0  0
  9 57  1  0  0  0
 10 11  2  0  0  0
 10 14  1  0  0  0
 11 12  1  0  0  0
 11 58  1  0  0  0
 12 13  2  0  0  0
 14 15  2  0  0  0
 14 21  1  0  0  0
 15 16  1  0  0  0
 15 17  1  0  0  0
 17 18  2  0  0  0
 17 59  1  0  0  0
 18 19  1  0  0  0
 18 60  1  0  0  0
 19 20  1  0  0  0
 19 21  2  0  0  0
 21 22  1  0  0  0
 23 24  1  0  0  0
 23 28  2  0  0  0
 24 25  2  0  0  0
 24 61  1  0  0  0
 25 26  1  0  0  0
 25 29  1  0  0  0
 26 27  2  0  0  0
 26 62  1  0  0  0
 27 28  1  0  0  0
 27 63  1  0  0  0
 29 30  2  0  0  0
 29 39  1  0  0  0
 30 31  1  0  0  0
 30 64  1  0  0  0
 31 32  1  0  0  0
 31 37  2  0  0  0
 32 33  2  0  0  0
 32 65  1  0  0  0
 33 34  1  0  0  0
 33 66  1  0  0  0
 34 35  2  0  0  0
 34 36  1  0  0  0
 36 37  1  0  0  0
 36 67  1  0  0  0
 37 38  1  0  0  0
 38 39  2  0  0  0
 38 68  1  0  0  0
 39 40  1  0  0  0
 40 41  1  0  0  0
 40 69  1  0  0  0
 41 42  2  0  0  0
M  END
> <chembl_id>
CHEMBL4109665

> <chembl_pref_name>
None

> <i_m_ct_stereo_status>
1

> <s_m_source_file>
sdf/actives_sanitized.sdf

> <i_m_source_file_index>
230

> <i_lp_mmshare_version>
49012

> <i_f3d_flags>
0

> <s_epik_input>
Tz1jKFtuSF0xKVtjSF1bY0hdYyhbY0hdMiljMVtjSF1jKGMyYyhbY0hdYzM0KVtjSF1bY0hdbjQpW05IXUMoPU8pW0NASF0oW0NIM10pW0NIMl1bQ0gyXVtDSDJdW0NAQEhdM041W0NIMl1bQ0gyXUMoPVtDSF1DNT1PKWM2YyhGKVtjSF1bY0hdYyhDbCljNkY=

> <s_epik_cmdline>
J2VwaWtfcHl0aG9uJywgJy1waHQnLCAnMC41JywgJy1waCcsICc3LjUnLCAnLW50JywgJy1tYScsICcyMDAnLCAnLWltYWUnLCAnPGluZmlsZS5tYWU+JywgJy1vbWFlJywgJzxvdXRmaWxlLm1hZT4n

> <r_lp_tautomer_probability>
1

> <r_epik_Ionization_Penalty>
  0.0005

> <r_epik_Ionization_Penalty_Charging>
  0.0004

> <r_epik_Ionization_Penalty_Neutral>
  0.0001

> <r_epik_State_Penalty>
 -0.0000

> <r_epik_Charging_Adjusted_Penalty>
0.000448148447485947

> <i_epik_Tot_Q>
0

> <i_epik_Tot_abs_Q>
0

> <s_lp_Force_Field>
OPLS3e

> <r_lp_Energy>
97.158416

> <b_lp_Chiralities_Consistent>
1

> <s_lp_Variant>
sdf/actives_sanitized.sdf:230-1

$$$$
sdf/actives_sanitized.sdf:231
                    3D
 Schrodinger Suite 2020-1.
 74 78  0  0  1  0            999 V2000
  -10.9483   -4.6186   -2.6749 C   0  0  0  0  0  0
   -9.5685   -4.7417   -2.3588 O   0  0  0  0  0  0
   -8.6912   -3.7767   -2.7009 C   0  0  0  0  0  0
   -8.9945   -2.7430   -3.3001 O   0  0  0  0  0  0
   -7.4284   -4.1597   -2.2592 N   0  0  0  0  0  0
   -6.1957   -3.4957   -2.3794 C   0  0  0  0  0  0
   -5.0968   -4.1236   -1.7920 C   0  0  0  0  0  0
   -3.8306   -3.5482   -1.8645 C   0  0  0  0  0  0
   -3.6270   -2.3334   -2.5274 C   0  0  0  0  0  0
   -4.7412   -1.6811   -3.1000 C   0  0  0  0  0  0
   -4.6468   -0.4652   -3.7970 N   0  0  0  0  0  0
   -4.4181    0.7705   -3.2958 C   0  0  0  0  0  0
   -4.4306    1.7366   -4.0577 O   0  0  0  0  0  0
   -4.1399    1.0196   -1.7888 C   0  0  2  0  0  0
   -5.3090    1.7817   -1.1320 C   0  0  0  0  0  0
   -2.7830    1.7596   -1.5930 C   0  0  0  0  0  0
   -2.1930    1.6946   -0.1584 C   0  0  0  0  0  0
   -0.6415    1.6201   -0.0987 C   0  0  0  0  0  0
   -0.0360    0.1815   -0.1641 C   0  0  2  0  0  0
    1.4330    0.1184    0.0573 N   0  0  0  0  0  0
    2.3289    1.1759   -0.5030 C   0  0  0  0  0  0
    3.6917    1.2462    0.2370 C   0  0  0  0  0  0
    4.2553   -0.1584    0.3368 C   0  0  0  0  0  0
    3.3982   -1.1827    0.5069 C   0  0  0  0  0  0
    1.9569   -1.0578    0.5450 C   0  0  0  0  0  0
    1.2788   -1.9658    1.0300 O   0  0  0  0  0  0
    5.7129   -0.3824    0.4535 C   0  0  0  0  0  0
    6.3807   -0.9218   -0.6590 C   0  0  0  0  0  0
    5.6870   -1.2405   -1.7797 F   0  0  0  0  0  0
    7.7599   -1.1334   -0.6287 C   0  0  0  0  0  0
    8.5779   -1.8001   -1.9972 Cl  0  0  0  0  0  0
    8.4864   -0.8046    0.5107 C   0  0  0  0  0  0
    7.8388   -0.2633    1.6169 C   0  0  0  0  0  0
    6.4552   -0.0329    1.6069 C   0  0  0  0  0  0
    5.7939    0.5162    2.8822 C   0  0  0  0  0  0
    6.5701    0.3634    3.9576 F   0  0  0  0  0  0
    5.5536    1.8178    2.7270 F   0  0  0  0  0  0
    4.6437   -0.1037    3.1489 F   0  0  0  0  0  0
   -0.5035   -0.5673   -1.4153 C   0  0  0  0  0  0
   -1.6856   -1.3070   -1.3642 C   0  0  0  0  0  0
   -2.2613   -1.7541   -2.5556 C   0  0  0  0  0  0
   -1.5600   -1.5598   -3.7521 C   0  0  0  0  0  0
   -0.3319   -0.8954   -3.7126 C   0  0  0  0  0  0
    0.1928   -0.3817   -2.5704 N   0  0  0  0  0  0
   -6.0082   -2.2715   -3.0397 C   0  0  0  0  0  0
  -11.4904   -5.4906   -2.3091 H   0  0  0  0  0  0
  -11.0991   -4.5528   -3.7535 H   0  0  0  0  0  0
  -11.3797   -3.7311   -2.2094 H   0  0  0  0  0  0
   -7.3864   -5.0466   -1.7791 H   0  0  0  0  0  0
   -5.2147   -5.0650   -1.2742 H   0  0  0  0  0  0
   -2.9972   -4.0568   -1.4012 H   0  0  0  0  0  0
   -4.8950   -0.5132   -4.7745 H   0  0  0  0  0  0
   -4.0769    0.0603   -1.2804 H   0  0  0  0  0  0
   -6.2519    1.2454   -1.2512 H   0  0  0  0  0  0
   -5.4397    2.7745   -1.5653 H   0  0  0  0  0  0
   -5.1447    1.9082   -0.0614 H   0  0  0  0  0  0
   -2.0542    1.3582   -2.2963 H   0  0  0  0  0  0
   -2.8811    2.8048   -1.8921 H   0  0  0  0  0  0
   -2.5281    2.5798    0.3840 H   0  0  0  0  0  0
   -2.6110    0.8540    0.3966 H   0  0  0  0  0  0
   -0.2335    2.2546   -0.8859 H   0  0  0  0  0  0
   -0.3230    2.0725    0.8416 H   0  0  0  0  0  0
   -0.4893   -0.3342    0.6851 H   0  0  0  0  0  0
    2.5802    0.8310   -1.5075 H   0  0  0  0  0  0
    1.8476    2.1405   -0.6487 H   0  0  0  0  0  0
    4.3819    1.9202   -0.2717 H   0  0  0  0  0  0
    3.5077    1.6442    1.2350 H   0  0  0  0  0  0
    3.7996   -2.1761    0.6523 H   0  0  0  0  0  0
    9.5536   -0.9688    0.5411 H   0  0  0  0  0  0
    8.4314   -0.0203    2.4869 H   0  0  0  0  0  0
   -2.2182   -1.4168   -0.4302 H   0  0  0  0  0  0
   -1.9673   -1.8978   -4.6939 H   0  0  0  0  0  0
    0.2325   -0.7288   -4.6182 H   0  0  0  0  0  0
   -6.8321   -1.7574   -3.5085 H   0  0  0  0  0  0
  1  2  1  0  0  0
  1 46  1  0  0  0
  1 47  1  0  0  0
  1 48  1  0  0  0
  2  3  1  0  0  0
  3  4  2  0  0  0
  3  5  1  0  0  0
  5  6  1  0  0  0
  5 49  1  0  0  0
  6  7  2  0  0  0
  6 45  1  0  0  0
  7  8  1  0  0  0
  7 50  1  0  0  0
  8  9  2  0  0  0
  8 51  1  0  0  0
  9 10  1  0  0  0
  9 41  1  0  0  0
 10 11  1  0  0  0
 10 45  2  0  0  0
 11 12  1  0  0  0
 11 52  1  0  0  0
 12 13  2  0  0  0
 12 14  1  0  0  0
 14 15  1  0  0  0
 14 16  1  0  0  0
 14 53  1  0  0  0
 15 54  1  0  0  0
 15 55  1  0  0  0
 15 56  1  0  0  0
 16 17  1  0  0  0
 16 57  1  0  0  0
 16 58  1  0  0  0
 17 18  1  0  0  0
 17 59  1  0  0  0
 17 60  1  0  0  0
 18 19  1  0  0  0
 18 61  1  0  0  0
 18 62  1  0  0  0
 19 20  1  0  0  0
 19 39  1  0  0  0
 19 63  1  0  0  0
 20 21  1  0  0  0
 20 25  1  0  0  0
 21 22  1  0  0  0
 21 64  1  0  0  0
 21 65  1  0  0  0
 22 23  1  0  0  0
 22 66  1  0  0  0
 22 67  1  0  0  0
 23 24  2  0  0  0
 23 27  1  0  0  0
 24 25  1  0  0  0
 24 68  1  0  0  0
 25 26  2  0  0  0
 27 28  2  0  0  0
 27 34  1  0  0  0
 28 29  1  0  0  0
 28 30  1  0  0  0
 30 31  1  0  0  0
 30 32  2  0  0  0
 32 33  1  0  0  0
 32 69  1  0  0  0
 33 34  2  0  0  0
 33 70  1  0  0  0
 34 35  1  0  0  0
 35 36  1  0  0  0
 35 37  1  0  0  0
 35 38  1  0  0  0
 39 40  1  0  0  0
 39 44  2  0  0  0
 40 41  2  0  0  0
 40 71  1  0  0  0
 41 42  1  0  0  0
 42 43  2  0  0  0
 42 72  1  0  0  0
 43 44  1  0  0  0
 43 73  1  0  0  0
 45 74  1  0  0  0
M  END
> <chembl_id>
CHEMBL4114933

> <chembl_pref_name>
None

> <i_m_ct_stereo_status>
1

> <s_m_source_file>
sdf/actives_sanitized.sdf

> <i_m_source_file_index>
231

> <i_lp_mmshare_version>
49012

> <i_f3d_flags>
0

> <s_epik_input>
W0NIM11PQyg9TylbTkhdYyhbY0hdW2NIXTEpW2NIXWMoYzEyKVtOSF1DKD1PKVtDQEhdKFtDSDNdKVtDSDJdW0NIMl1bQ0gyXVtDQEBIXShjM1tjSF1jMltjSF1bY0hdbjMpTjRbQ0gyXVtDSDJdQyg9W0NIXUM0PU8pYzVjKEYpYyhDbClbY0hdW2NIXWM1QyhGKShGKUY=

> <s_epik_cmdline>
J2VwaWtfcHl0aG9uJywgJy1waHQnLCAnMC41JywgJy1waCcsICc3LjUnLCAnLW50JywgJy1tYScsICcyMDAnLCAnLWltYWUnLCAnPGluZmlsZS5tYWU+JywgJy1vbWFlJywgJzxvdXRmaWxlLm1hZT4n

> <r_lp_tautomer_probability>
1

> <r_epik_Ionization_Penalty>
  0.0001

> <r_epik_Ionization_Penalty_Charging>
  0.0000

> <r_epik_Ionization_Penalty_Neutral>
  0.0001

> <r_epik_State_Penalty>
 -0.0000

> <r_epik_Charging_Adjusted_Penalty>
0

> <i_epik_Tot_Q>
0

> <i_epik_Tot_abs_Q>
0

> <s_epik_Chemistry_Notes>
This compound has an ester and may undergo hydrolysis at high or low pH.

> <s_lp_Force_Field>
OPLS3e

> <r_lp_Energy>
93.939563

> <b_lp_Chiralities_Consistent>
1

> <s_lp_Variant>
sdf/actives_sanitized.sdf:231-1

$$$$
sdf/actives_sanitized.sdf:232
                    3D
 Schrodinger Suite 2020-1.
 63 67  0  0  1  0            999 V2000
   -5.0235    3.1662   -0.9149 C   0  0  0  0  0  0
   -3.7901    2.2363   -0.9271 C   0  0  2  0  0  0
   -2.8472    2.5831    0.2780 C   0  0  0  0  0  0
   -1.8370    1.5056    0.7595 C   0  0  0  0  0  0
   -0.5299    1.3564   -0.0664 C   0  0  0  0  0  0
    0.0479   -0.0979   -0.1507 C   0  0  2  0  0  0
    1.5304   -0.1056   -0.0813 N   0  0  0  0  0  0
    2.2896    0.7823   -1.0097 C   0  0  0  0  0  0
    3.7195    0.2549   -1.3034 C   0  0  0  0  0  0
    4.3783   -0.1383    0.0090 C   0  0  0  0  0  0
    3.5983   -0.7052    0.9527 C   0  0  0  0  0  0
    2.1651   -0.8845    0.8537 C   0  0  0  0  0  0
    1.5950   -1.7086    1.5708 O   0  0  0  0  0  0
    5.8580   -0.1685    0.1427 C   0  0  0  0  0  0
    6.4768    0.3263    1.3051 C   0  0  0  0  0  0
    5.7393    0.8474    2.3145 F   0  0  0  0  0  0
    7.8648    0.3074    1.4361 C   0  0  0  0  0  0
    8.6585   -0.1977    0.4105 C   0  0  0  0  0  0
    8.0653   -0.6886   -0.7504 C   0  0  0  0  0  0
    9.0648   -1.3146   -2.0137 Cl  0  0  0  0  0  0
    6.6732   -0.6758   -0.8860 C   0  0  0  0  0  0
    6.1218   -1.1767   -2.0176 F   0  0  0  0  0  0
   -0.5248   -0.8761   -1.3572 C   0  0  0  0  0  0
   -1.8814   -0.7723   -1.6550 C   0  0  0  0  0  0
   -2.3932   -1.2902   -2.8396 C   0  0  0  0  0  0
   -1.5368   -2.0336   -3.6592 C   0  0  0  0  0  0
   -0.1986   -2.1721   -3.2755 C   0  0  0  0  0  0
    0.3161   -1.5927   -2.1576 N   0  0  0  0  0  0
   -3.8061   -0.9783   -3.1862 C   0  0  0  0  0  0
   -4.7416   -2.0122   -3.3414 C   0  0  0  0  0  0
   -4.3600   -3.3062   -3.2278 F   0  0  0  0  0  0
   -6.0829   -1.7242   -3.5927 C   0  0  0  0  0  0
   -6.5098   -0.4029   -3.6977 C   0  0  0  0  0  0
   -7.8106   -0.1307   -3.9469 F   0  0  0  0  0  0
   -5.5944    0.6377   -3.5610 C   0  0  0  0  0  0
   -4.2482    0.3609   -3.3020 C   0  0  0  0  0  0
   -3.3353    1.4305   -3.2978 N   0  0  0  0  0  0
   -3.0977    2.3275   -2.3137 C   0  0  0  0  0  0
   -2.3126    3.2507   -2.5254 O   0  0  0  0  0  0
   -5.7213    2.9315   -1.7189 H   0  0  0  0  0  0
   -4.7404    4.2145   -1.0252 H   0  0  0  0  0  0
   -5.5788    3.0725    0.0191 H   0  0  0  0  0  0
   -4.1695    1.2261   -0.7746 H   0  0  0  0  0  0
   -2.3258    3.5262    0.1051 H   0  0  0  0  0  0
   -3.4859    2.7847    1.1398 H   0  0  0  0  0  0
   -1.5388    1.7615    1.7775 H   0  0  0  0  0  0
   -2.3546    0.5559    0.8861 H   0  0  0  0  0  0
   -0.6613    1.7432   -1.0756 H   0  0  0  0  0  0
    0.2044    2.0292    0.3798 H   0  0  0  0  0  0
   -0.3492   -0.6276    0.7167 H   0  0  0  0  0  0
    1.7108    1.0432   -1.8963 H   0  0  0  0  0  0
    2.4256    1.7207   -0.4703 H   0  0  0  0  0  0
    3.6256   -0.6247   -1.9419 H   0  0  0  0  0  0
    4.3059    0.9997   -1.8425 H   0  0  0  0  0  0
    4.0622   -1.0924    1.8490 H   0  0  0  0  0  0
    8.3275    0.6901    2.3341 H   0  0  0  0  0  0
    9.7332   -0.2067    0.5186 H   0  0  0  0  0  0
   -2.5487   -0.2324   -1.0144 H   0  0  0  0  0  0
   -1.8915   -2.4719   -4.5807 H   0  0  0  0  0  0
    0.4930   -2.7325   -3.8872 H   0  0  0  0  0  0
   -6.7954   -2.5286   -3.7029 H   0  0  0  0  0  0
   -5.9317    1.6572   -3.6808 H   0  0  0  0  0  0
   -2.7722    1.5154   -4.1316 H   0  0  0  0  0  0
  1  2  1  0  0  0
  1 40  1  0  0  0
  1 41  1  0  0  0
  1 42  1  0  0  0
  2  3  1  0  0  0
  2 38  1  0  0  0
  2 43  1  0  0  0
  3  4  1  0  0  0
  3 44  1  0  0  0
  3 45  1  0  0  0
  4  5  1  0  0  0
  4 46  1  0  0  0
  4 47  1  0  0  0
  5  6  1  0  0  0
  5 48  1  0  0  0
  5 49  1  0  0  0
  6  7  1  0  0  0
  6 23  1  0  0  0
  6 50  1  0  0  0
  7  8  1  0  0  0
  7 12  1  0  0  0
  8  9  1  0  0  0
  8 51  1  0  0  0
  8 52  1  0  0  0
  9 10  1  0  0  0
  9 53  1  0  0  0
  9 54  1  0  0  0
 10 11  2  0  0  0
 10 14  1  0  0  0
 11 12  1  0  0  0
 11 55  1  0  0  0
 12 13  2  0  0  0
 14 15  2  0  0  0
 14 21  1  0  0  0
 15 16  1  0  0  0
 15 17  1  0  0  0
 17 18  2  0  0  0
 17 56  1  0  0  0
 18 19  1  0  0  0
 18 57  1  0  0  0
 19 20  1  0  0  0
 19 21  2  0  0  0
 21 22  1  0  0  0
 23 24  1  0  0  0
 23 28  2  0  0  0
 24 25  2  0  0  0
 24 58  1  0  0  0
 25 26  1  0  0  0
 25 29  1  0  0  0
 26 27  2  0  0  0
 26 59  1  0  0  0
 27 28  1  0  0  0
 27 60  1  0  0  0
 29 30  2  0  0  0
 29 36  1  0  0  0
 30 31  1  0  0  0
 30 32  1  0  0  0
 32 33  2  0  0  0
 32 61  1  0  0  0
 33 34  1  0  0  0
 33 35  1  0  0  0
 35 36  2  0  0  0
 35 62  1  0  0  0
 36 37  1  0  0  0
 37 38  1  0  0  0
 37 63  1  0  0  0
 38 39  2  0  0  0
M  END
> <chembl_id>
CHEMBL4111733

> <chembl_pref_name>
None

> <i_m_ct_stereo_status>
1

> <s_m_source_file>
sdf/actives_sanitized.sdf

> <i_m_source_file_index>
232

> <i_lp_mmshare_version>
49012

> <i_f3d_flags>
0

> <s_epik_input>
bjFbY0hdW2NIXWMoW2NIXWMxMiljM2MoW2NIXWMoRilbY0hdYzNGKVtOSF1DKD1PKVtDQEhdKFtDSDNdKVtDSDJdW0NIMl1bQ0gyXVtDQEBIXTJONFtDSDJdW0NIMl1DKD1bQ0hdQzQ9TyljNWMoRilbY0hdW2NIXWMoQ2wpYzVG

> <s_epik_cmdline>
J2VwaWtfcHl0aG9uJywgJy1waHQnLCAnMC41JywgJy1waCcsICc3LjUnLCAnLW50JywgJy1tYScsICcyMDAnLCAnLWltYWUnLCAnPGluZmlsZS5tYWU+JywgJy1vbWFlJywgJzxvdXRmaWxlLm1hZT4n

> <r_lp_tautomer_probability>
1

> <r_epik_Ionization_Penalty>
  0.0001

> <r_epik_Ionization_Penalty_Charging>
  0.0000

> <r_epik_Ionization_Penalty_Neutral>
  0.0001

> <r_epik_State_Penalty>
 -0.0000

> <r_epik_Charging_Adjusted_Penalty>
0

> <i_epik_Tot_Q>
0

> <i_epik_Tot_abs_Q>
0

> <s_lp_Force_Field>
OPLS3e

> <r_lp_Energy>
93.478855

> <b_lp_Chiralities_Consistent>
1

> <s_lp_Variant>
sdf/actives_sanitized.sdf:232-1

$$$$
sdf/actives_sanitized.sdf:233
                    3D
 Schrodinger Suite 2020-1.
 62 66  0  0  1  0            999 V2000
   -5.2441    1.7917   -0.8924 C   0  0  0  0  0  0
   -4.1395    0.9696   -1.5877 C   0  0  2  0  0  0
   -2.7494    1.6639   -1.4843 C   0  0  0  0  0  0
   -2.0917    1.6114   -0.0793 C   0  0  0  0  0  0
   -0.5416    1.5090   -0.0904 C   0  0  0  0  0  0
    0.0448    0.0628   -0.1837 C   0  0  2  0  0  0
    1.5258    0.0163   -0.0942 N   0  0  0  0  0  0
    2.3399    1.0565   -0.7923 C   0  0  0  0  0  0
    3.7635    0.5667   -1.1717 C   0  0  0  0  0  0
    4.3701   -0.1595    0.0158 C   0  0  0  0  0  0
    3.5492   -0.9145    0.7723 C   0  0  0  0  0  0
    2.1157   -1.0116    0.6003 C   0  0  0  0  0  0
    1.5031   -1.9767    1.0610 O   0  0  0  0  0  0
    5.8408   -0.2855    0.1638 C   0  0  0  0  0  0
    6.4509   -0.0401    1.4060 C   0  0  0  0  0  0
    5.7103    0.3260    2.4791 F   0  0  0  0  0  0
    7.8325   -0.1551    1.5543 C   0  0  0  0  0  0
    8.6257   -0.5139    0.4680 C   0  0  0  0  0  0
    8.0389   -0.7586   -0.7718 C   0  0  0  0  0  0
    9.0375   -1.2062   -2.1092 Cl  0  0  0  0  0  0
    6.6535   -0.6449   -0.9262 C   0  0  0  0  0  0
    6.1033   -0.9034   -2.1369 F   0  0  0  0  0  0
   -0.5180   -0.7140   -1.3776 C   0  0  0  0  0  0
   -1.7170   -1.4148   -1.2332 C   0  0  0  0  0  0
   -2.3711   -1.8882   -2.3734 C   0  0  0  0  0  0
   -1.7315   -1.7631   -3.6126 C   0  0  0  0  0  0
   -0.4841   -1.1375   -3.6666 C   0  0  0  0  0  0
    0.1176   -0.5974   -2.5761 N   0  0  0  0  0  0
   -3.7506   -2.4196   -2.2531 C   0  0  0  0  0  0
   -3.9673   -3.6113   -1.5484 C   0  0  0  0  0  0
   -5.2663   -4.1024   -1.4174 C   0  0  0  0  0  0
   -6.3479   -3.4757   -1.9411 N   0  0  0  0  0  0
   -6.1403   -2.3178   -2.6153 C   0  0  0  0  0  0
   -4.8750   -1.7453   -2.7831 C   0  0  0  0  0  0
   -4.7970   -0.5534   -3.5207 N   0  0  0  0  0  0
   -4.5073    0.6887   -3.0694 C   0  0  0  0  0  0
   -4.5373    1.6339   -3.8565 O   0  0  0  0  0  0
   -6.2107    1.2881   -0.9477 H   0  0  0  0  0  0
   -5.3615    2.7775   -1.3452 H   0  0  0  0  0  0
   -5.0193    1.9397    0.1643 H   0  0  0  0  0  0
   -4.0828    0.0231   -1.0550 H   0  0  0  0  0  0
   -2.0728    1.2180   -2.2123 H   0  0  0  0  0  0
   -2.8259    2.7040   -1.8065 H   0  0  0  0  0  0
   -2.3855    2.5110    0.4632 H   0  0  0  0  0  0
   -2.4959    0.7872    0.5095 H   0  0  0  0  0  0
   -0.1523    2.1463   -0.8847 H   0  0  0  0  0  0
   -0.1762    1.9497    0.8387 H   0  0  0  0  0  0
   -0.3413   -0.4412    0.7050 H   0  0  0  0  0  0
    1.8014    1.5137   -1.6224 H   0  0  0  0  0  0
    2.4709    1.8586   -0.0644 H   0  0  0  0  0  0
    3.6628   -0.1269   -2.0075 H   0  0  0  0  0  0
    4.3877    1.3979   -1.5012 H   0  0  0  0  0  0
    3.9772   -1.5287    1.5523 H   0  0  0  0  0  0
    8.2908    0.0368    2.5134 H   0  0  0  0  0  0
    9.6954   -0.6014    0.5904 H   0  0  0  0  0  0
   -2.1995   -1.4743   -0.2681 H   0  0  0  0  0  0
   -2.2001   -2.1245   -4.5163 H   0  0  0  0  0  0
    0.0335   -1.0237   -4.6075 H   0  0  0  0  0  0
   -3.1404   -4.1526   -1.1115 H   0  0  0  0  0  0
   -5.4554   -5.0210   -0.8818 H   0  0  0  0  0  0
   -7.0239   -1.8445   -3.0192 H   0  0  0  0  0  0
   -5.1018   -0.6226   -4.4808 H   0  0  0  0  0  0
  1  2  1  0  0  0
  1 38  1  0  0  0
  1 39  1  0  0  0
  1 40  1  0  0  0
  2  3  1  0  0  0
  2 36  1  0  0  0
  2 41  1  0  0  0
  3  4  1  0  0  0
  3 42  1  0  0  0
  3 43  1  0  0  0
  4  5  1  0  0  0
  4 44  1  0  0  0
  4 45  1  0  0  0
  5  6  1  0  0  0
  5 46  1  0  0  0
  5 47  1  0  0  0
  6  7  1  0  0  0
  6 23  1  0  0  0
  6 48  1  0  0  0
  7  8  1  0  0  0
  7 12  1  0  0  0
  8  9  1  0  0  0
  8 49  1  0  0  0
  8 50  1  0  0  0
  9 10  1  0  0  0
  9 51  1  0  0  0
  9 52  1  0  0  0
 10 11  2  0  0  0
 10 14  1  0  0  0
 11 12  1  0  0  0
 11 53  1  0  0  0
 12 13  2  0  0  0
 14 15  2  0  0  0
 14 21  1  0  0  0
 15 16  1  0  0  0
 15 17  1  0  0  0
 17 18  2  0  0  0
 17 54  1  0  0  0
 18 19  1  0  0  0
 18 55  1  0  0  0
 19 20  1  0  0  0
 19 21  2  0  0  0
 21 22  1  0  0  0
 23 24  1  0  0  0
 23 28  2  0  0  0
 24 25  2  0  0  0
 24 56  1  0  0  0
 25 26  1  0  0  0
 25 29  1  0  0  0
 26 27  2  0  0  0
 26 57  1  0  0  0
 27 28  1  0  0  0
 27 58  1  0  0  0
 29 30  2  0  0  0
 29 34  1  0  0  0
 30 31  1  0  0  0
 30 59  1  0  0  0
 31 32  2  0  0  0
 31 60  1  0  0  0
 32 33  1  0  0  0
 33 34  2  0  0  0
 33 61  1  0  0  0
 34 35  1  0  0  0
 35 36  1  0  0  0
 35 62  1  0  0  0
 36 37  2  0  0  0
M  END
> <chembl_id>
CHEMBL4109585

> <chembl_pref_name>
None

> <i_m_ct_stereo_status>
1

> <s_m_source_file>
sdf/actives_sanitized.sdf

> <i_m_source_file_index>
233

> <i_lp_mmshare_version>
49012

> <i_f3d_flags>
0

> <s_epik_input>
bjFbY0hdW2NIXWMoW2NIXWMxMiljM2MoW2NIXW5bY0hdW2NIXTMpW05IXUMoPU8pW0NASF0oW0NIM10pW0NIMl1bQ0gyXVtDSDJdW0NAQEhdMk40W0NIMl1bQ0gyXUMoPVtDSF1DND1PKWM1YyhGKVtjSF1bY0hdYyhDbCljNUY=

> <s_epik_cmdline>
J2VwaWtfcHl0aG9uJywgJy1waHQnLCAnMC41JywgJy1waCcsICc3LjUnLCAnLW50JywgJy1tYScsICcyMDAnLCAnLWltYWUnLCAnPGluZmlsZS5tYWU+JywgJy1vbWFlJywgJzxvdXRmaWxlLm1hZT4n

> <r_lp_tautomer_probability>
1

> <r_epik_Ionization_Penalty>
  0.0002

> <r_epik_Ionization_Penalty_Charging>
  0.0000

> <r_epik_Ionization_Penalty_Neutral>
  0.0002

> <r_epik_State_Penalty>
 -0.0000

> <r_epik_Charging_Adjusted_Penalty>
0

> <i_epik_Tot_Q>
0

> <i_epik_Tot_abs_Q>
0

> <s_lp_Force_Field>
OPLS3e

> <r_lp_Energy>
95.633733

> <b_lp_Chiralities_Consistent>
1

> <s_lp_Variant>
sdf/actives_sanitized.sdf:233-1

$$$$
sdf/actives_sanitized.sdf:234
                    3D
 Schrodinger Suite 2020-1.
 70 74  0  0  1  0            999 V2000
   -3.2596    1.5276    0.0044 C   0  0  0  0  0  0
   -2.1140    0.7042   -0.1642 O   0  0  0  0  0  0
   -0.8730    1.2030    0.0054 C   0  0  0  0  0  0
   -0.6303    2.3739    0.3056 O   0  0  0  0  0  0
    0.0434    0.1801   -0.2196 N   0  0  0  0  0  0
    1.4465    0.2024   -0.1445 C   0  0  0  0  0  0
    2.2038    1.3073    0.2702 C   0  0  0  0  0  0
    3.5938    1.2258    0.3199 C   0  0  0  0  0  0
    4.2637    0.0499   -0.0341 C   0  0  0  0  0  0
    3.5018   -1.0546   -0.4745 C   0  0  0  0  0  0
    4.0699   -2.2858   -0.8406 N   0  0  0  0  0  0
    4.7797   -2.5783   -1.9546 C   0  0  0  0  0  0
    5.1459   -3.7377   -2.1440 O   0  0  0  0  0  0
    5.1520   -1.5019   -3.0091 C   0  0  2  0  0  0
    4.3937   -1.7395   -4.3310 C   0  0  0  0  0  0
    6.6936   -1.4496   -3.2241 C   0  0  0  0  0  0
    7.2193   -0.1585   -3.9061 C   0  0  0  0  0  0
    8.6150    0.3133   -3.4140 C   0  0  0  0  0  0
    8.6174    1.2377   -2.1529 C   0  0  2  0  0  0
    9.9670    1.7368   -1.7867 N   0  0  0  0  0  0
   11.1407    0.8176   -1.8727 C   0  0  0  0  0  0
   12.2959    1.1999   -0.9074 C   0  0  0  0  0  0
   12.5287    2.6988   -0.9711 C   0  0  0  0  0  0
   11.4536    3.4947   -1.1449 C   0  0  0  0  0  0
   10.0979    3.0299   -1.3434 C   0  0  0  0  0  0
    9.1481    3.7800   -1.1100 O   0  0  0  0  0  0
   13.8488    3.2608   -0.6034 C   0  0  0  0  0  0
   14.6286    2.7190    0.4255 C   0  0  0  0  0  0
   15.8643    3.3020    0.7105 C   0  0  0  0  0  0
   16.2925    4.4037   -0.0315 C   0  0  0  0  0  0
   15.4652    4.8942   -1.0442 C   0  0  0  0  0  0
   15.9822    6.2570   -1.9670 Cl  0  0  0  0  0  0
   14.2609    4.3360   -1.3317 N   0  0  0  0  0  0
    7.8583    0.6152   -0.9774 C   0  0  0  0  0  0
    6.4784    0.8037   -0.8791 C   0  0  0  0  0  0
    5.7463    0.0248    0.0203 C   0  0  0  0  0  0
    6.4414   -0.8235    0.8910 C   0  0  0  0  0  0
    7.8337   -0.8857    0.8021 C   0  0  0  0  0  0
    8.5447   -0.1972   -0.1271 N   0  0  0  0  0  0
    2.1063   -0.9736   -0.5080 C   0  0  0  0  0  0
   -4.1638    0.9402   -0.1550 H   0  0  0  0  0  0
   -3.2586    2.3513   -0.7108 H   0  0  0  0  0  0
   -3.2987    1.9436    1.0122 H   0  0  0  0  0  0
   -0.3537   -0.7123   -0.4745 H   0  0  0  0  0  0
    1.7471    2.2380    0.5657 H   0  0  0  0  0  0
    4.1563    2.0894    0.6448 H   0  0  0  0  0  0
    3.8191   -3.0658   -0.2508 H   0  0  0  0  0  0
    4.8306   -0.5288   -2.6453 H   0  0  0  0  0  0
    3.3138   -1.7470   -4.1744 H   0  0  0  0  0  0
    4.6651   -2.6919   -4.7891 H   0  0  0  0  0  0
    4.6076   -0.9527   -5.0551 H   0  0  0  0  0  0
    7.1926   -1.5727   -2.2633 H   0  0  0  0  0  0
    7.0206   -2.3182   -3.7985 H   0  0  0  0  0  0
    7.2640   -0.3407   -4.9808 H   0  0  0  0  0  0
    6.5080    0.6604   -3.7923 H   0  0  0  0  0  0
    9.2492   -0.5609   -3.2649 H   0  0  0  0  0  0
    9.0791    0.8713   -4.2287 H   0  0  0  0  0  0
    8.0291    2.1067   -2.4554 H   0  0  0  0  0  0
   10.8501   -0.2308   -1.8105 H   0  0  0  0  0  0
   11.5288    0.9426   -2.8845 H   0  0  0  0  0  0
   11.9941    0.9311    0.1060 H   0  0  0  0  0  0
   13.2001    0.6371   -1.1427 H   0  0  0  0  0  0
   11.5851    4.5668   -1.0995 H   0  0  0  0  0  0
   14.2875    1.8674    0.9959 H   0  0  0  0  0  0
   16.4844    2.9041    1.5002 H   0  0  0  0  0  0
   17.2461    4.8664    0.1771 H   0  0  0  0  0  0
    5.9656    1.4473   -1.5797 H   0  0  0  0  0  0
    5.9123   -1.4355    1.6068 H   0  0  0  0  0  0
    8.3982   -1.5307    1.4589 H   0  0  0  0  0  0
    1.5311   -1.8321   -0.8281 H   0  0  0  0  0  0
  1  2  1  0  0  0
  1 41  1  0  0  0
  1 42  1  0  0  0
  1 43  1  0  0  0
  2  3  1  0  0  0
  3  4  2  0  0  0
  3  5  1  0  0  0
  5  6  1  0  0  0
  5 44  1  0  0  0
  6  7  2  0  0  0
  6 40  1  0  0  0
  7  8  1  0  0  0
  7 45  1  0  0  0
  8  9  2  0  0  0
  8 46  1  0  0  0
  9 10  1  0  0  0
  9 36  1  0  0  0
 10 11  1  0  0  0
 10 40  2  0  0  0
 11 12  1  0  0  0
 11 47  1  0  0  0
 12 13  2  0  0  0
 12 14  1  0  0  0
 14 15  1  0  0  0
 14 16  1  0  0  0
 14 48  1  0  0  0
 15 49  1  0  0  0
 15 50  1  0  0  0
 15 51  1  0  0  0
 16 17  1  0  0  0
 16 52  1  0  0  0
 16 53  1  0  0  0
 17 18  1  0  0  0
 17 54  1  0  0  0
 17 55  1  0  0  0
 18 19  1  0  0  0
 18 56  1  0  0  0
 18 57  1  0  0  0
 19 20  1  0  0  0
 19 34  1  0  0  0
 19 58  1  0  0  0
 20 21  1  0  0  0
 20 25  1  0  0  0
 21 22  1  0  0  0
 21 59  1  0  0  0
 21 60  1  0  0  0
 22 23  1  0  0  0
 22 61  1  0  0  0
 22 62  1  0  0  0
 23 24  2  0  0  0
 23 27  1  0  0  0
 24 25  1  0  0  0
 24 63  1  0  0  0
 25 26  2  0  0  0
 27 28  2  0  0  0
 27 33  1  0  0  0
 28 29  1  0  0  0
 28 64  1  0  0  0
 29 30  2  0  0  0
 29 65  1  0  0  0
 30 31  1  0  0  0
 30 66  1  0  0  0
 31 32  1  0  0  0
 31 33  2  0  0  0
 34 35  1  0  0  0
 34 39  2  0  0  0
 35 36  2  0  0  0
 35 67  1  0  0  0
 36 37  1  0  0  0
 37 38  2  0  0  0
 37 68  1  0  0  0
 38 39  1  0  0  0
 38 69  1  0  0  0
 40 70  1  0  0  0
M  END
> <chembl_id>
CHEMBL4108314

> <chembl_pref_name>
None

> <i_m_ct_stereo_status>
1

> <s_m_source_file>
sdf/actives_sanitized.sdf

> <i_m_source_file_index>
234

> <i_lp_mmshare_version>
49012

> <i_f3d_flags>
0

> <s_epik_input>
W0NIM11PQyg9TylbTkhdYyhbY0hdW2NIXTEpW2NIXWMoYzEyKVtOSF1DKD1PKVtDQEhdKFtDSDNdKVtDSDJdW0NIMl1bQ0gyXVtDQEBIXShjM1tjSF1jMltjSF1bY0hdbjMpTjRbQ0gyXVtDSDJdQyg9W0NIXUM0PU8pYzVbY0hdW2NIXVtjSF1jKENsKW41

> <s_epik_cmdline>
J2VwaWtfcHl0aG9uJywgJy1waHQnLCAnMC41JywgJy1waCcsICc3LjUnLCAnLW50JywgJy1tYScsICcyMDAnLCAnLWltYWUnLCAnPGluZmlsZS5tYWU+JywgJy1vbWFlJywgJzxvdXRmaWxlLm1hZT4n

> <r_lp_tautomer_probability>
1

> <r_epik_Ionization_Penalty>
  0.0001

> <r_epik_Ionization_Penalty_Charging>
  0.0000

> <r_epik_Ionization_Penalty_Neutral>
  0.0001

> <r_epik_State_Penalty>
 -0.0000

> <r_epik_Charging_Adjusted_Penalty>
0

> <i_epik_Tot_Q>
0

> <i_epik_Tot_abs_Q>
0

> <s_epik_Chemistry_Notes>
This compound has an ester and may undergo hydrolysis at high or low pH.

> <s_lp_Force_Field>
OPLS3e

> <r_lp_Energy>
93.583255

> <b_lp_Chiralities_Consistent>
1

> <s_lp_Variant>
sdf/actives_sanitized.sdf:234-1

$$$$
sdf/actives_sanitized.sdf:235
                    3D
 Schrodinger Suite 2020-1.
 69 74  0  0  1  0            999 V2000
   -5.2334    1.8550   -1.4926 C   0  0  0  0  0  0
   -4.0980    0.9157   -1.9486 C   0  0  2  0  0  0
   -2.7098    1.6194   -1.8999 C   0  0  0  0  0  0
   -2.1297    1.8399   -0.4770 C   0  0  0  0  0  0
   -0.5825    1.7315   -0.3866 C   0  0  0  0  0  0
   -0.0176    0.2958   -0.1376 C   0  0  2  0  0  0
    1.4524    0.2453    0.0858 N   0  0  0  0  0  0
    2.3667    1.1302   -0.6987 C   0  0  0  0  0  0
    3.7457    1.3173   -0.0115 C   0  0  0  0  0  0
    4.2749   -0.0476    0.3868 C   0  0  0  0  0  0
    3.3901   -0.9795    0.7926 C   0  0  0  0  0  0
    1.9535   -0.8075    0.8172 C   0  0  0  0  0  0
    1.2599   -1.5673    1.4960 O   0  0  0  0  0  0
    5.7343   -0.2804    0.5068 C   0  0  0  0  0  0
    6.4864    0.6269    1.2657 C   0  0  0  0  0  0
    7.8543    0.4428    1.4611 C   0  0  0  0  0  0
    8.7517    1.5735    2.4073 Cl  0  0  0  0  0  0
    8.4950   -0.6574    0.8978 C   0  0  0  0  0  0
    7.7699   -1.5674    0.1328 C   0  0  0  0  0  0
    6.3953   -1.3868   -0.0766 C   0  0  0  0  0  0
    5.7186   -2.3140   -0.9026 N   0  0  0  0  0  0
    4.8797   -2.0694   -1.9649 C   0  0  0  0  0  0
    4.4897   -3.3237   -2.4036 C   0  0  0  0  0  0
    5.0567   -4.2615   -1.6698 N   0  0  0  0  0  0
    5.8427   -3.6379   -0.7161 N   0  0  0  0  0  0
   -0.5172   -0.6957   -1.1938 C   0  0  0  0  0  0
   -1.7312   -1.3550   -0.9922 C   0  0  0  0  0  0
   -2.3242   -2.0330   -2.0601 C   0  0  0  0  0  0
   -1.6118   -2.1430   -3.2607 C   0  0  0  0  0  0
   -0.3552   -1.5406   -3.3562 C   0  0  0  0  0  0
    0.1894   -0.8061   -2.3525 N   0  0  0  0  0  0
   -3.7146   -2.5339   -1.9219 C   0  0  0  0  0  0
   -3.9752   -3.5629   -1.0078 C   0  0  0  0  0  0
   -5.2666   -4.0560   -0.8303 C   0  0  0  0  0  0
   -6.3221   -3.5231   -1.5654 C   0  0  0  0  0  0
   -6.0875   -2.4913   -2.4715 C   0  0  0  0  0  0
   -4.7971   -1.9800   -2.6439 C   0  0  0  0  0  0
   -4.6492   -0.9532   -3.5903 N   0  0  0  0  0  0
   -4.3781    0.3537   -3.3683 C   0  0  0  0  0  0
   -4.3511    1.1298   -4.3227 O   0  0  0  0  0  0
   -6.1993    1.3476   -1.5042 H   0  0  0  0  0  0
   -5.3164    2.7330   -2.1351 H   0  0  0  0  0  0
   -5.0678    2.2069   -0.4740 H   0  0  0  0  0  0
   -4.0822    0.0898   -1.2411 H   0  0  0  0  0  0
   -1.9979    1.0430   -2.4899 H   0  0  0  0  0  0
   -2.7587    2.5783   -2.4193 H   0  0  0  0  0  0
   -2.4382    2.8301   -0.1387 H   0  0  0  0  0  0
   -2.5773    1.1494    0.2385 H   0  0  0  0  0  0
   -0.1556    2.1705   -1.2885 H   0  0  0  0  0  0
   -0.2517    2.3652    0.4376 H   0  0  0  0  0  0
   -0.4765   -0.0097    0.8053 H   0  0  0  0  0  0
    2.5889    0.5702   -1.6086 H   0  0  0  0  0  0
    1.9111    2.0565   -1.0411 H   0  0  0  0  0  0
    4.4400    1.8390   -0.6714 H   0  0  0  0  0  0
    3.6075    1.9307    0.8800 H   0  0  0  0  0  0
    3.7639   -1.9301    1.1472 H   0  0  0  0  0  0
    6.0042    1.4785    1.7243 H   0  0  0  0  0  0
    9.5545   -0.8053    1.0472 H   0  0  0  0  0  0
    8.2868   -2.4077   -0.3087 H   0  0  0  0  0  0
    4.6459   -1.0666   -2.2911 H   0  0  0  0  0  0
    3.8226   -3.5482   -3.2230 H   0  0  0  0  0  0
   -2.2695   -1.2315   -0.0632 H   0  0  0  0  0  0
   -2.0316   -2.6666   -4.1074 H   0  0  0  0  0  0
    0.2180   -1.6071   -4.2690 H   0  0  0  0  0  0
   -3.1674   -3.9898   -0.4307 H   0  0  0  0  0  0
   -5.4480   -4.8529   -0.1241 H   0  0  0  0  0  0
   -7.3221   -3.9088   -1.4326 H   0  0  0  0  0  0
   -6.9173   -2.0864   -3.0337 H   0  0  0  0  0  0
   -4.8906   -1.2064   -4.5373 H   0  0  0  0  0  0
  1  2  1  0  0  0
  1 41  1  0  0  0
  1 42  1  0  0  0
  1 43  1  0  0  0
  2  3  1  0  0  0
  2 39  1  0  0  0
  2 44  1  0  0  0
  3  4  1  0  0  0
  3 45  1  0  0  0
  3 46  1  0  0  0
  4  5  1  0  0  0
  4 47  1  0  0  0
  4 48  1  0  0  0
  5  6  1  0  0  0
  5 49  1  0  0  0
  5 50  1  0  0  0
  6  7  1  0  0  0
  6 26  1  0  0  0
  6 51  1  0  0  0
  7  8  1  0  0  0
  7 12  1  0  0  0
  8  9  1  0  0  0
  8 52  1  0  0  0
  8 53  1  0  0  0
  9 10  1  0  0  0
  9 54  1  0  0  0
  9 55  1  0  0  0
 10 11  2  0  0  0
 10 14  1  0  0  0
 11 12  1  0  0  0
 11 56  1  0  0  0
 12 13  2  0  0  0
 14 15  2  0  0  0
 14 20  1  0  0  0
 15 16  1  0  0  0
 15 57  1  0  0  0
 16 17  1  0  0  0
 16 18  2  0  0  0
 18 19  1  0  0  0
 18 58  1  0  0  0
 19 20  2  0  0  0
 19 59  1  0  0  0
 20 21  1  0  0  0
 21 22  1  0  0  0
 21 25  1  0  0  0
 22 23  2  0  0  0
 22 60  1  0  0  0
 23 24  1  0  0  0
 23 61  1  0  0  0
 24 25  2  0  0  0
 26 27  1  0  0  0
 26 31  2  0  0  0
 27 28  2  0  0  0
 27 62  1  0  0  0
 28 29  1  0  0  0
 28 32  1  0  0  0
 29 30  2  0  0  0
 29 63  1  0  0  0
 30 31  1  0  0  0
 30 64  1  0  0  0
 32 33  2  0  0  0
 32 37  1  0  0  0
 33 34  1  0  0  0
 33 65  1  0  0  0
 34 35  2  0  0  0
 34 66  1  0  0  0
 35 36  1  0  0  0
 35 67  1  0  0  0
 36 37  2  0  0  0
 36 68  1  0  0  0
 37 38  1  0  0  0
 38 39  1  0  0  0
 38 69  1  0  0  0
 39 40  2  0  0  0
M  END
> <chembl_id>
CHEMBL4110549

> <chembl_pref_name>
None

> <i_m_ct_stereo_status>
1

> <s_m_source_file>
sdf/actives_sanitized.sdf

> <i_m_source_file_index>
235

> <i_lp_mmshare_version>
49012

> <i_f3d_flags>
0

> <s_epik_input>
bjFbY0hdW2NIXWMoW2NIXWMxMiljM2MoW2NIXVtjSF1bY0hdW2NIXTMpW05IXUMoPU8pW0NASF0oW0NIM10pW0NIMl1bQ0gyXVtDSDJdW0NAQEhdMk40W0NIMl1bQ0gyXUMoPVtDSF1DND1PKWM1W2NIXWMoQ2wpW2NIXVtjSF1jNS1uNltjSF1bY0hdbm42

> <s_epik_cmdline>
J2VwaWtfcHl0aG9uJywgJy1waHQnLCAnMC41JywgJy1waCcsICc3LjUnLCAnLW50JywgJy1tYScsICcyMDAnLCAnLWltYWUnLCAnPGluZmlsZS5tYWU+JywgJy1vbWFlJywgJzxvdXRmaWxlLm1hZT4n

> <r_lp_tautomer_probability>
1

> <r_epik_Ionization_Penalty>
  0.0001

> <r_epik_Ionization_Penalty_Charging>
  0.0000

> <r_epik_Ionization_Penalty_Neutral>
  0.0001

> <r_epik_State_Penalty>
 -0.0000

> <r_epik_Charging_Adjusted_Penalty>
0

> <i_epik_Tot_Q>
0

> <i_epik_Tot_abs_Q>
0

> <s_lp_Force_Field>
OPLS3e

> <r_lp_Energy>
98.70219

> <b_lp_Chiralities_Consistent>
1

> <s_lp_Variant>
sdf/actives_sanitized.sdf:235-1

$$$$
sdf/actives_sanitized.sdf:236
                    3D
 Schrodinger Suite 2020-1.
 64 68  0  0  1  0            999 V2000
   -2.7786    3.4263   -3.0224 C   0  0  0  0  0  0
   -1.9445    2.1563   -3.2898 C   0  0  2  0  0  0
   -0.4406    2.3504   -2.9121 C   0  0  0  0  0  0
   -0.0612    2.6156   -1.4336 C   0  0  0  0  0  0
   -0.3131    1.5187   -0.3543 C   0  0  0  0  0  0
    0.3532    0.1032   -0.4849 C   0  0  2  0  0  0
    1.8420    0.0208   -0.3519 N   0  0  0  0  0  0
    2.6208    1.1951    0.1471 C   0  0  0  0  0  0
    4.1122    1.1362   -0.2687 C   0  0  0  0  0  0
    4.6688   -0.2211    0.1207 C   0  0  0  0  0  0
    3.8393   -1.2817    0.0556 C   0  0  0  0  0  0
    2.4236   -1.2295   -0.2534 C   0  0  0  0  0  0
    1.8315   -2.2903   -0.4599 O   0  0  0  0  0  0
    6.1304   -0.4259    0.2859 C   0  0  0  0  0  0
    7.0487    0.1010   -0.6394 C   0  0  0  0  0  0
    6.6263    0.7925   -1.7236 F   0  0  0  0  0  0
    8.4192   -0.0935   -0.4689 C   0  0  0  0  0  0
    8.8953   -0.8135    0.6231 C   0  0  0  0  0  0
    8.0011   -1.3408    1.5519 C   0  0  0  0  0  0
    8.6073   -2.2272    2.9057 Cl  0  0  0  0  0  0
    6.6259   -1.1478    1.3870 C   0  0  0  0  0  0
    5.7729   -1.6521    2.3118 F   0  0  0  0  0  0
   -0.2549   -0.6316   -1.6819 C   0  0  0  0  0  0
   -1.5376   -0.8620   -1.7736 N   0  0  0  0  0  0
   -1.7603   -1.1497   -3.0438 C   0  0  0  0  0  0
   -0.5675   -1.3523   -3.7397 C   0  0  0  0  0  0
   -0.2430   -1.7165   -5.1683 C   0  0  0  0  0  0
    0.3974   -1.0085   -2.8290 N   0  0  0  0  0  0
   -3.1617   -1.1113   -3.5407 C   0  0  0  0  0  0
   -4.0865   -1.9865   -2.9562 C   0  0  0  0  0  0
   -5.4240   -1.9745   -3.3471 C   0  0  0  0  0  0
   -5.8544   -1.0840   -4.3271 C   0  0  0  0  0  0
   -4.9476   -0.2040   -4.9148 C   0  0  0  0  0  0
   -3.6054   -0.1958   -4.5203 C   0  0  0  0  0  0
   -2.7644    0.6816   -5.2227 N   0  0  0  0  0  0
   -2.0548    1.7471   -4.7859 C   0  0  0  0  0  0
   -1.4683    2.4351   -5.6214 O   0  0  0  0  0  0
   -3.8214    3.2855   -3.3116 H   0  0  0  0  0  0
   -2.3986    4.2866   -3.5757 H   0  0  0  0  0  0
   -2.7777    3.6855   -1.9636 H   0  0  0  0  0  0
   -2.3771    1.3839   -2.6646 H   0  0  0  0  0  0
    0.1540    1.5151   -3.2734 H   0  0  0  0  0  0
   -0.0595    3.1993   -3.4837 H   0  0  0  0  0  0
    0.9914    2.8887   -1.4355 H   0  0  0  0  0  0
   -0.5705    3.5236   -1.1098 H   0  0  0  0  0  0
   -0.0341    1.9340    0.6147 H   0  0  0  0  0  0
   -1.3930    1.3864   -0.2712 H   0  0  0  0  0  0
   -0.0052   -0.4266    0.4003 H   0  0  0  0  0  0
    2.1419    2.1642    0.0614 H   0  0  0  0  0  0
    2.6560    1.0481    1.2286 H   0  0  0  0  0  0
    4.1712    1.2711   -1.3495 H   0  0  0  0  0  0
    4.6833    1.9421    0.1939 H   0  0  0  0  0  0
    4.2497   -2.2672    0.2288 H   0  0  0  0  0  0
    9.1158    0.3121   -1.1881 H   0  0  0  0  0  0
    9.9585   -0.9601    0.7471 H   0  0  0  0  0  0
   -1.1366   -1.9912   -5.7290 H   0  0  0  0  0  0
    0.4429   -2.5621   -5.2227 H   0  0  0  0  0  0
    0.2251   -0.8856   -5.6965 H   0  0  0  0  0  0
    1.3881   -0.9294   -3.0083 H   0  0  0  0  0  0
   -3.7695   -2.6822   -2.1923 H   0  0  0  0  0  0
   -6.1259   -2.6567   -2.8905 H   0  0  0  0  0  0
   -6.8896   -1.0781   -4.6348 H   0  0  0  0  0  0
   -5.2972    0.4732   -5.6815 H   0  0  0  0  0  0
   -2.8059    0.5730   -6.2255 H   0  0  0  0  0  0
  1  2  1  0  0  0
  1 38  1  0  0  0
  1 39  1  0  0  0
  1 40  1  0  0  0
  2  3  1  0  0  0
  2 36  1  0  0  0
  2 41  1  0  0  0
  3  4  1  0  0  0
  3 42  1  0  0  0
  3 43  1  0  0  0
  4  5  1  0  0  0
  4 44  1  0  0  0
  4 45  1  0  0  0
  5  6  1  0  0  0
  5 46  1  0  0  0
  5 47  1  0  0  0
  6  7  1  0  0  0
  6 23  1  0  0  0
  6 48  1  0  0  0
  7  8  1  0  0  0
  7 12  1  0  0  0
  8  9  1  0  0  0
  8 49  1  0  0  0
  8 50  1  0  0  0
  9 10  1  0  0  0
  9 51  1  0  0  0
  9 52  1  0  0  0
 10 11  2  0  0  0
 10 14  1  0  0  0
 11 12  1  0  0  0
 11 53  1  0  0  0
 12 13  2  0  0  0
 14 15  2  0  0  0
 14 21  1  0  0  0
 15 16  1  0  0  0
 15 17  1  0  0  0
 17 18  2  0  0  0
 17 54  1  0  0  0
 18 19  1  0  0  0
 18 55  1  0  0  0
 19 20  1  0  0  0
 19 21  2  0  0  0
 21 22  1  0  0  0
 23 24  2  0  0  0
 23 28  1  0  0  0
 24 25  1  0  0  0
 25 26  2  0  0  0
 25 29  1  0  0  0
 26 27  1  0  0  0
 26 28  1  0  0  0
 27 56  1  0  0  0
 27 57  1  0  0  0
 27 58  1  0  0  0
 28 59  1  0  0  0
 29 30  2  0  0  0
 29 34  1  0  0  0
 30 31  1  0  0  0
 30 60  1  0  0  0
 31 32  2  0  0  0
 31 61  1  0  0  0
 32 33  1  0  0  0
 32 62  1  0  0  0
 33 34  2  0  0  0
 33 63  1  0  0  0
 34 35  1  0  0  0
 35 36  1  0  0  0
 35 64  1  0  0  0
 36 37  2  0  0  0
M  END
> <chembl_id>
CHEMBL4110002

> <chembl_pref_name>
None

> <i_m_ct_stereo_status>
1

> <s_m_source_file>
sdf/actives_sanitized.sdf

> <i_m_source_file_index>
236

> <i_lp_mmshare_version>
49012

> <i_f3d_flags>
0

> <s_epik_input>
YzEybmMoYyhbQ0gzXSlbbkhdMiljM2MoW2NIXVtjSF1bY0hdW2NIXTMpW05IXUMoPU8pW0NASF0oW0NIM10pW0NIMl1bQ0gyXVtDSDJdW0NAQEhdMU40W0NIMl1bQ0gyXUMoPVtDSF1DND1PKWM1YyhGKVtjSF1bY0hdYyhDbCljNUY=

> <s_epik_cmdline>
J2VwaWtfcHl0aG9uJywgJy1waHQnLCAnMC41JywgJy1waCcsICc3LjUnLCAnLW50JywgJy1tYScsICcyMDAnLCAnLWltYWUnLCAnPGluZmlsZS5tYWU+JywgJy1vbWFlJywgJzxvdXRmaWxlLm1hZT4n

> <r_lp_tautomer_probability>
0.499999999999999

> <r_epik_Ionization_Penalty>
  0.3264

> <r_epik_Ionization_Penalty_Charging>
  0.3264

> <r_epik_Ionization_Penalty_Neutral>
  0.0000

> <r_epik_State_Penalty>
  0.5924

> <r_epik_Charging_Adjusted_Penalty>
0.918814585013764

> <i_epik_Tot_Q>
0

> <i_epik_Tot_abs_Q>
0

> <s_lp_Force_Field>
OPLS3e

> <r_lp_Energy>
93.094621

> <b_lp_Chiralities_Consistent>
1

> <s_lp_Variant>
sdf/actives_sanitized.sdf:236-1

$$$$
sdf/actives_sanitized.sdf:236
                    3D
 Schrodinger Suite 2020-1.
 65 69  0  0  1  0            999 V2000
   -2.6898    3.7209   -3.9594 C   0  0  0  0  0  0
   -1.7399    2.6920   -3.3119 C   0  0  2  0  0  0
   -1.0242    3.3229   -2.0661 C   0  0  0  0  0  0
    0.0401    2.4713   -1.3117 C   0  0  0  0  0  0
   -0.4914    1.5658   -0.1641 C   0  0  0  0  0  0
    0.0834    0.1106   -0.1148 C   0  0  2  0  0  0
    1.5641    0.0786   -0.0091 N   0  0  0  0  0  0
    2.4052   -0.1406   -1.2265 C   0  0  0  0  0  0
    3.8125    0.5028   -1.1094 C   0  0  0  0  0  0
    4.4074    0.1347    0.2385 C   0  0  0  0  0  0
    3.5715    0.0732    1.2945 C   0  0  0  0  0  0
    2.1356    0.2431    1.2299 C   0  0  0  0  0  0
    1.5035    0.5322    2.2473 O   0  0  0  0  0  0
    5.8768    0.1324    0.4475 C   0  0  0  0  0  0
    6.6815    1.1751   -0.0438 C   0  0  0  0  0  0
    6.1353    2.2262   -0.6988 F   0  0  0  0  0  0
    8.0627    1.1569    0.1493 C   0  0  0  0  0  0
    8.6618    0.1030    0.8334 C   0  0  0  0  0  0
    7.8804   -0.9396    1.3273 C   0  0  0  0  0  0
    8.6385   -2.2433    2.1711 Cl  0  0  0  0  0  0
    6.4955   -0.9273    1.1353 C   0  0  0  0  0  0
    5.7540   -1.9594    1.6067 F   0  0  0  0  0  0
   -0.4576   -0.7294   -1.2677 C   0  0  0  0  0  0
   -1.2302   -0.2439   -2.2800 N   0  3  0  0  0  0
   -1.5643   -1.2080   -3.1979 C   0  0  0  0  0  0
   -0.9873   -2.3944   -2.7224 C   0  0  0  0  0  0
   -0.9948   -3.8078   -3.2534 C   0  0  0  0  0  0
   -0.3147   -2.0713   -1.5445 N   0  0  0  0  0  0
   -2.4263   -0.8390   -4.3551 C   0  0  0  0  0  0
   -3.5558   -1.6311   -4.5909 C   0  0  0  0  0  0
   -4.4489   -1.3094   -5.6119 C   0  0  0  0  0  0
   -4.2202   -0.1930   -6.4132 C   0  0  0  0  0  0
   -3.0919    0.5972   -6.2025 C   0  0  0  0  0  0
   -2.1938    0.2890   -5.1750 C   0  0  0  0  0  0
   -1.0103    1.0419   -5.1130 N   0  0  0  0  0  0
   -0.7512    2.1500   -4.3826 C   0  0  0  0  0  0
    0.3043    2.7525   -4.5736 O   0  0  0  0  0  0
   -3.2581    3.2830   -4.7814 H   0  0  0  0  0  0
   -2.1468    4.5791   -4.3590 H   0  0  0  0  0  0
   -3.4142    4.0985   -3.2368 H   0  0  0  0  0  0
   -2.3776    1.8850   -2.9580 H   0  0  0  0  0  0
   -0.5256    4.2364   -2.3969 H   0  0  0  0  0  0
   -1.7733    3.6636   -1.3497 H   0  0  0  0  0  0
    0.6192    1.8916   -2.0263 H   0  0  0  0  0  0
    0.7729    3.1513   -0.8742 H   0  0  0  0  0  0
   -0.2889    2.0604    0.7872 H   0  0  0  0  0  0
   -1.5804    1.5113   -0.2078 H   0  0  0  0  0  0
   -0.3220   -0.3421    0.7924 H   0  0  0  0  0  0
    2.5716   -1.2181   -1.2687 H   0  0  0  0  0  0
    1.8843    0.0973   -2.1534 H   0  0  0  0  0  0
    4.4549    0.1884   -1.9326 H   0  0  0  0  0  0
    3.6931    1.5854   -1.1733 H   0  0  0  0  0  0
    3.9883   -0.0793    2.2804 H   0  0  0  0  0  0
    8.6713    1.9648   -0.2300 H   0  0  0  0  0  0
    9.7322    0.0967    0.9787 H   0  0  0  0  0  0
   -1.4876   -3.8752   -4.2236 H   0  0  0  0  0  0
   -1.5171   -4.4876   -2.5798 H   0  0  0  0  0  0
    0.0161   -4.1954   -3.3828 H   0  0  0  0  0  0
    0.2025   -2.7265   -0.9756 H   0  0  0  0  0  0
   -3.7579   -2.4931   -3.9710 H   0  0  0  0  0  0
   -5.3204   -1.9249   -5.7805 H   0  0  0  0  0  0
   -4.9101    0.0517   -7.2075 H   0  0  0  0  0  0
   -2.9112    1.4416   -6.8528 H   0  0  0  0  0  0
   -0.2962    0.7615   -5.7698 H   0  0  0  0  0  0
   -1.5133    0.7228   -2.3545 H   0  0  0  0  0  0
  1  2  1  0  0  0
  1 38  1  0  0  0
  1 39  1  0  0  0
  1 40  1  0  0  0
  2  3  1  0  0  0
  2 36  1  0  0  0
  2 41  1  0  0  0
  3  4  1  0  0  0
  3 42  1  0  0  0
  3 43  1  0  0  0
  4  5  1  0  0  0
  4 44  1  0  0  0
  4 45  1  0  0  0
  5  6  1  0  0  0
  5 46  1  0  0  0
  5 47  1  0  0  0
  6  7  1  0  0  0
  6 23  1  0  0  0
  6 48  1  0  0  0
  7  8  1  0  0  0
  7 12  1  0  0  0
  8  9  1  0  0  0
  8 49  1  0  0  0
  8 50  1  0  0  0
  9 10  1  0  0  0
  9 51  1  0  0  0
  9 52  1  0  0  0
 10 11  2  0  0  0
 10 14  1  0  0  0
 11 12  1  0  0  0
 11 53  1  0  0  0
 12 13  2  0  0  0
 14 15  2  0  0  0
 14 21  1  0  0  0
 15 16  1  0  0  0
 15 17  1  0  0  0
 17 18  2  0  0  0
 17 54  1  0  0  0
 18 19  1  0  0  0
 18 55  1  0  0  0
 19 20  1  0  0  0
 19 21  2  0  0  0
 21 22  1  0  0  0
 23 24  2  0  0  0
 23 28  1  0  0  0
 24 25  1  0  0  0
 24 65  1  0  0  0
 25 26  2  0  0  0
 25 29  1  0  0  0
 26 27  1  0  0  0
 26 28  1  0  0  0
 27 56  1  0  0  0
 27 57  1  0  0  0
 27 58  1  0  0  0
 28 59  1  0  0  0
 29 30  2  0  0  0
 29 34  1  0  0  0
 30 31  1  0  0  0
 30 60  1  0  0  0
 31 32  2  0  0  0
 31 61  1  0  0  0
 32 33  1  0  0  0
 32 62  1  0  0  0
 33 34  2  0  0  0
 33 63  1  0  0  0
 34 35  1  0  0  0
 35 36  1  0  0  0
 35 64  1  0  0  0
 36 37  2  0  0  0
M  CHG  1  24   1
M  END
> <chembl_id>
CHEMBL4110002

> <chembl_pref_name>
None

> <i_m_ct_stereo_status>
1

> <s_m_source_file>
sdf/actives_sanitized.sdf

> <i_m_source_file_index>
236

> <i_lp_mmshare_version>
49012

> <i_f3d_flags>
0

> <s_epik_input>
YzEybmMoYyhbQ0gzXSlbbkhdMiljM2MoW2NIXVtjSF1bY0hdW2NIXTMpW05IXUMoPU8pW0NASF0oW0NIM10pW0NIMl1bQ0gyXVtDSDJdW0NAQEhdMU40W0NIMl1bQ0gyXUMoPVtDSF1DND1PKWM1YyhGKVtjSF1bY0hdYyhDbCljNUY=

> <s_epik_cmdline>
J2VwaWtfcHl0aG9uJywgJy1waHQnLCAnMC41JywgJy1waCcsICc3LjUnLCAnLW50JywgJy1tYScsICcyMDAnLCAnLWltYWUnLCAnPGluZmlsZS5tYWU+JywgJy1vbWFlJywgJzxvdXRmaWxlLm1hZT4n

> <r_lp_tautomer_probability>
1

> <r_epik_Ionization_Penalty>
  0.7689

> <r_epik_Ionization_Penalty_Charging>
  0.0000

> <r_epik_Ionization_Penalty_Neutral>
  0.7689

> <r_epik_State_Penalty>
  0.5965

> <r_epik_Charging_Adjusted_Penalty>
0.596520724778133

> <i_epik_Tot_Q>
1

> <i_epik_Tot_abs_Q>
1

> <s_lp_Force_Field>
OPLS3e

> <r_lp_Energy>
86.645281

> <b_lp_Chiralities_Consistent>
1

> <s_lp_Variant>
sdf/actives_sanitized.sdf:236-2

$$$$
sdf/actives_sanitized.sdf:237
                    3D
 Schrodinger Suite 2020-1.
 61 66  0  0  1  0            999 V2000
   -0.0677    0.0841    0.0993 C   0  0  1  0  0  0
    1.4074    0.0605    0.0365 N   0  0  0  0  0  0
    2.2957    0.4664    0.9660 C   0  0  0  0  0  0
    1.9812    0.8969    2.0767 O   0  0  0  0  0  0
   -0.5167    1.5666    0.1796 C   0  0  0  0  0  0
   -0.6530   -0.5295   -1.2102 C   0  0  0  0  0  0
   -0.1322   -2.1747    1.3567 C   0  0  0  0  0  0
   -0.6802   -0.7285    1.2818 C   0  0  0  0  0  0
   -0.2593   -2.7991   -0.0290 C   0  0  0  0  0  0
   -0.4789   -2.0490   -1.1970 C   0  0  0  0  0  0
   -0.1747   -4.0921   -0.2541 N   0  0  0  0  0  0
   -0.3335   -4.2463   -1.5915 N   0  0  0  0  0  0
   -0.5315   -3.0113   -2.2392 C   0  0  0  0  0  0
   -0.7195   -3.0282   -3.6366 C   0  0  0  0  0  0
   -0.6991   -4.2467   -4.3195 C   0  0  0  0  0  0
   -0.4978   -5.4468   -3.6424 C   0  0  0  0  0  0
   -0.3133   -5.4501   -2.2606 C   0  0  0  0  0  0
   -0.0936   -6.7461   -1.4931 C   0  0  0  0  0  0
   -0.9198   -1.8571   -4.3198 O   0  0  0  0  0  0
    3.7483    0.3049    0.5910 C   0  0  0  0  0  0
    4.2821    0.7576   -0.6362 C   0  0  0  0  0  0
    5.6421    0.5911   -0.9073 C   0  0  0  0  0  0
    6.4925   -0.0151    0.0231 C   0  0  0  0  0  0
    5.9705   -0.4328    1.2508 C   0  0  0  0  0  0
    4.6158   -0.2690    1.5304 C   0  0  0  0  0  0
    3.3293    1.5576   -1.8457 Cl  0  0  0  0  0  0
    7.8753   -0.1541   -0.2388 N   0  0  0  0  0  0
    9.9076   -1.1581   -0.2516 N   0  0  0  0  0  0
    8.6648   -1.2222    0.1433 C   0  0  0  0  0  0
    9.9756    0.0207   -0.9398 C   0  0  0  0  0  0
    8.7226    0.6864   -0.9522 C   0  0  0  0  0  0
    8.5627    1.9269   -1.5811 C   0  0  0  0  0  0
    9.6851    2.4687   -2.2108 C   0  0  0  0  0  0
   10.9362    1.8298   -2.2294 C   0  0  0  0  0  0
   11.0821    0.5910   -1.5831 C   0  0  0  0  0  0
   12.1063    2.4649   -2.9274 C   0  0  0  0  0  0
   11.9343    3.5793   -3.4729 O   0  5  0  0  0  0
   13.1966    1.8480   -2.9301 O   0  0  0  0  0  0
    1.7857   -0.3296   -0.8144 H   0  0  0  0  0  0
   -1.6038    1.6542    0.1650 H   0  0  0  0  0  0
   -0.1341    2.1484   -0.6605 H   0  0  0  0  0  0
   -0.1777    2.0526    1.0948 H   0  0  0  0  0  0
   -0.1646   -0.0931   -2.0833 H   0  0  0  0  0  0
   -1.7135   -0.2939   -1.3128 H   0  0  0  0  0  0
   -0.6847   -2.7444    2.1047 H   0  0  0  0  0  0
    0.9114   -2.1641    1.6728 H   0  0  0  0  0  0
   -1.7707   -0.7267    1.2309 H   0  0  0  0  0  0
   -0.4295   -0.2476    2.2281 H   0  0  0  0  0  0
   -0.8410   -4.2651   -5.3905 H   0  0  0  0  0  0
   -0.4874   -6.3742   -4.1964 H   0  0  0  0  0  0
   -0.1001   -7.6131   -2.1548 H   0  0  0  0  0  0
   -0.8782   -6.8841   -0.7484 H   0  0  0  0  0  0
    0.8665   -6.7235   -0.9767 H   0  0  0  0  0  0
   -1.0346   -1.9870   -5.2639 H   0  0  0  0  0  0
    6.0264    0.9247   -1.8598 H   0  0  0  0  0  0
    6.6092   -0.8767    2.0007 H   0  0  0  0  0  0
    4.2431   -0.6031    2.4888 H   0  0  0  0  0  0
    8.2324   -2.0370    0.7059 H   0  0  0  0  0  0
    7.6253    2.4619   -1.5808 H   0  0  0  0  0  0
    9.5623    3.4262   -2.6974 H   0  0  0  0  0  0
   12.0319    0.0751   -1.5731 H   0  0  0  0  0  0
  1  2  1  0  0  0
  1  5  1  0  0  0
  1  6  1  0  0  0
  1  8  1  0  0  0
  2  3  1  0  0  0
  2 39  1  0  0  0
  3  4  2  0  0  0
  3 20  1  0  0  0
  5 40  1  0  0  0
  5 41  1  0  0  0
  5 42  1  0  0  0
  6 10  1  0  0  0
  6 43  1  0  0  0
  6 44  1  0  0  0
  7  9  1  0  0  0
  7  8  1  0  0  0
  7 45  1  0  0  0
  7 46  1  0  0  0
  8 47  1  0  0  0
  8 48  1  0  0  0
  9 10  1  0  0  0
  9 11  2  0  0  0
 10 13  2  0  0  0
 11 12  1  0  0  0
 12 13  1  0  0  0
 12 17  1  0  0  0
 13 14  1  0  0  0
 14 15  2  0  0  0
 14 19  1  0  0  0
 15 16  1  0  0  0
 15 49  1  0  0  0
 16 17  2  0  0  0
 16 50  1  0  0  0
 17 18  1  0  0  0
 18 51  1  0  0  0
 18 52  1  0  0  0
 18 53  1  0  0  0
 19 54  1  0  0  0
 20 21  2  0  0  0
 20 25  1  0  0  0
 21 22  1  0  0  0
 21 26  1  0  0  0
 22 23  2  0  0  0
 22 55  1  0  0  0
 23 24  1  0  0  0
 23 27  1  0  0  0
 24 25  2  0  0  0
 24 56  1  0  0  0
 25 57  1  0  0  0
 27 31  1  0  0  0
 27 29  1  0  0  0
 28 30  1  0  0  0
 28 29  2  0  0  0
 29 58  1  0  0  0
 30 31  2  0  0  0
 30 35  1  0  0  0
 31 32  1  0  0  0
 32 33  2  0  0  0
 32 59  1  0  0  0
 33 34  1  0  0  0
 33 60  1  0  0  0
 34 35  2  0  0  0
 34 36  1  0  0  0
 35 61  1  0  0  0
 36 37  1  0  0  0
 36 38  2  0  0  0
M  CHG  1  37  -1
M  END
> <chembl_id>
CHEMBL4247345

> <chembl_pref_name>
None

> <s_m_source_file>
sdf/actives_sanitized.sdf

> <i_m_source_file_index>
237

> <i_lp_mmshare_version>
49012

> <i_m_ct_stereo_status>
1

> <i_f3d_flags>
0

> <s_epik_input>
W09IXWMxW2NIXVtjSF1jKFtDSDNdKW4objIpYzFjKGMyMylbQ0gyXVtDQEBdKFtDSDNdKShbQ0gyXVtDSDJdMylbTkhdQyg9TyljNGMoQ2wpW2NIXWMoW2NIXVtjSF00KS1uKFtjSF1uNSljKGM1NilbY0hdW2NIXWMoW2NIXTYpQyg9TylbT0hd

> <s_epik_cmdline>
J2VwaWtfcHl0aG9uJywgJy1waHQnLCAnMC41JywgJy1waCcsICc3LjUnLCAnLW50JywgJy1tYScsICcyMDAnLCAnLWltYWUnLCAnPGluZmlsZS5tYWU+JywgJy1vbWFlJywgJzxvdXRmaWxlLm1hZT4n

> <r_lp_tautomer_probability>
1

> <r_epik_Ionization_Penalty>
  0.0279

> <r_epik_Ionization_Penalty_Charging>
  0.0001

> <r_epik_Ionization_Penalty_Neutral>
  0.0277

> <r_epik_State_Penalty>
 -0.0000

> <r_epik_Charging_Adjusted_Penalty>
0.000128892879769036

> <i_epik_Tot_Q>
-1

> <i_epik_Tot_abs_Q>
1

> <s_lp_Force_Field>
OPLS3e

> <r_lp_Energy>
50.000498

> <b_lp_Chiralities_Consistent>
1

> <s_lp_Variant>
sdf/actives_sanitized.sdf:237-1

$$$$
sdf/actives_sanitized.sdf:238
                    3D
 Schrodinger Suite 2020-1.
 68 72  0  0  1  0            999 V2000
   -5.0955    2.9073   -0.5221 C   0  0  0  0  0  0
   -3.8500    1.9984   -0.6147 C   0  0  2  0  0  0
   -2.9700    2.1610    0.6745 C   0  0  0  0  0  0
   -1.9604    1.0341    1.0312 C   0  0  0  0  0  0
   -0.6166    1.0288    0.2513 C   0  0  0  0  0  0
    0.0004   -0.3865   -0.0184 C   0  0  2  0  0  0
    1.4807   -0.3570    0.0744 N   0  0  0  0  0  0
    2.2193    0.6291   -0.7680 C   0  0  0  0  0  0
    3.6683    0.1738   -1.0851 C   0  0  0  0  0  0
    4.3175   -0.3080    0.1979 C   0  0  0  0  0  0
    3.5553   -0.9730    1.0878 C   0  0  0  0  0  0
    2.1268   -1.1753    0.9678 C   0  0  0  0  0  0
    1.5715   -2.0558    1.6269 O   0  0  0  0  0  0
    5.7916   -0.3385    0.3120 C   0  0  0  0  0  0
    6.4700   -1.5323    0.0133 C   0  0  0  0  0  0
    5.7739   -2.6412   -0.3382 F   0  0  0  0  0  0
    7.8637   -1.5901    0.0673 C   0  0  0  0  0  0
    8.6979   -3.0588   -0.2972 Cl  0  0  0  0  0  0
    8.5921   -0.4567    0.4135 C   0  0  0  0  0  0
    7.9324    0.7338    0.7043 C   0  0  0  0  0  0
    6.5335    0.8170    0.6494 C   0  0  0  0  0  0
    5.8501    2.1422    1.0270 C   0  0  0  0  0  0
    6.6907    3.0038    1.6037 F   0  0  0  0  0  0
    5.3540    2.7179   -0.0676 F   0  0  0  0  0  0
    4.8515    1.9356    1.8868 F   0  0  0  0  0  0
   -0.5236   -1.0145   -1.3315 C   0  0  0  0  0  0
   -1.8573   -0.8408   -1.6915 C   0  0  0  0  0  0
   -2.3139   -1.2135   -2.9506 C   0  0  0  0  0  0
   -1.4295   -1.8898   -3.7979 C   0  0  0  0  0  0
   -0.1185   -2.1064   -3.3598 C   0  0  0  0  0  0
    0.3447   -1.6648   -2.1590 N   0  0  0  0  0  0
   -3.7024   -0.8412   -3.3307 C   0  0  0  0  0  0
   -4.6070   -1.8415   -3.7043 C   0  0  0  0  0  0
   -5.9492   -1.5514   -3.9983 C   0  0  0  0  0  0
   -6.3739   -0.2167   -3.9144 C   0  0  0  0  0  0
   -5.4860    0.7967   -3.5616 C   0  0  0  0  0  0
   -4.1547    0.4954   -3.2667 C   0  0  0  0  0  0
   -3.2597    1.5588   -3.0511 N   0  0  0  0  0  0
   -3.0930    2.3049   -1.9349 C   0  0  0  0  0  0
   -2.3186    3.2609   -1.9661 O   0  0  0  0  0  0
   -6.9052   -2.6410   -4.3898 C   0  0  0  0  0  0
   -8.0940   -2.3241   -4.6241 O   0  0  0  0  0  0
   -6.4653   -3.8115   -4.4632 O   0  5  0  0  0  0
   -5.7526    2.7877   -1.3838 H   0  0  0  0  0  0
   -4.8231    3.9625   -0.4640 H   0  0  0  0  0  0
   -5.6905    2.6725    0.3612 H   0  0  0  0  0  0
   -4.2244    0.9753   -0.6373 H   0  0  0  0  0  0
   -2.4601    3.1261    0.6760 H   0  0  0  0  0  0
   -3.6517    2.2171    1.5248 H   0  0  0  0  0  0
   -1.7104    1.1338    2.0887 H   0  0  0  0  0  0
   -2.4641    0.0696    0.9869 H   0  0  0  0  0  0
   -0.7141    1.5563   -0.6959 H   0  0  0  0  0  0
    0.0835    1.6408    0.8228 H   0  0  0  0  0  0
   -0.3955   -1.0402    0.7603 H   0  0  0  0  0  0
    1.6410    0.9459   -1.6367 H   0  0  0  0  0  0
    2.3211    1.5224   -0.1498 H   0  0  0  0  0  0
    3.6189   -0.6556   -1.7924 H   0  0  0  0  0  0
    4.2377    0.9720   -1.5605 H   0  0  0  0  0  0
    4.0341   -1.4200    1.9481 H   0  0  0  0  0  0
    9.6707   -0.4964    0.4584 H   0  0  0  0  0  0
    8.5268    1.5950    0.9723 H   0  0  0  0  0  0
   -2.5497   -0.3587   -1.0335 H   0  0  0  0  0  0
   -1.7421   -2.2192   -4.7781 H   0  0  0  0  0  0
    0.5934   -2.6189   -3.9897 H   0  0  0  0  0  0
   -4.2543   -2.8629   -3.7443 H   0  0  0  0  0  0
   -7.3961    0.0537   -4.1383 H   0  0  0  0  0  0
   -5.8337    1.8195   -3.5441 H   0  0  0  0  0  0
   -2.6571    1.7727   -3.8323 H   0  0  0  0  0  0
  1  2  1  0  0  0
  1 44  1  0  0  0
  1 45  1  0  0  0
  1 46  1  0  0  0
  2  3  1  0  0  0
  2 39  1  0  0  0
  2 47  1  0  0  0
  3  4  1  0  0  0
  3 48  1  0  0  0
  3 49  1  0  0  0
  4  5  1  0  0  0
  4 50  1  0  0  0
  4 51  1  0  0  0
  5  6  1  0  0  0
  5 52  1  0  0  0
  5 53  1  0  0  0
  6  7  1  0  0  0
  6 26  1  0  0  0
  6 54  1  0  0  0
  7  8  1  0  0  0
  7 12  1  0  0  0
  8  9  1  0  0  0
  8 55  1  0  0  0
  8 56  1  0  0  0
  9 10  1  0  0  0
  9 57  1  0  0  0
  9 58  1  0  0  0
 10 11  2  0  0  0
 10 14  1  0  0  0
 11 12  1  0  0  0
 11 59  1  0  0  0
 12 13  2  0  0  0
 14 15  2  0  0  0
 14 21  1  0  0  0
 15 16  1  0  0  0
 15 17  1  0  0  0
 17 18  1  0  0  0
 17 19  2  0  0  0
 19 20  1  0  0  0
 19 60  1  0  0  0
 20 21  2  0  0  0
 20 61  1  0  0  0
 21 22  1  0  0  0
 22 23  1  0  0  0
 22 24  1  0  0  0
 22 25  1  0  0  0
 26 27  1  0  0  0
 26 31  2  0  0  0
 27 28  2  0  0  0
 27 62  1  0  0  0
 28 29  1  0  0  0
 28 32  1  0  0  0
 29 30  2  0  0  0
 29 63  1  0  0  0
 30 31  1  0  0  0
 30 64  1  0  0  0
 32 33  2  0  0  0
 32 37  1  0  0  0
 33 34  1  0  0  0
 33 65  1  0  0  0
 34 35  2  0  0  0
 34 41  1  0  0  0
 35 36  1  0  0  0
 35 66  1  0  0  0
 36 37  2  0  0  0
 36 67  1  0  0  0
 37 38  1  0  0  0
 38 39  1  0  0  0
 38 68  1  0  0  0
 39 40  2  0  0  0
 41 42  2  0  0  0
 41 43  1  0  0  0
M  CHG  1  43  -1
M  END
> <chembl_id>
CHEMBL4106934

> <chembl_pref_name>
None

> <i_m_ct_stereo_status>
1

> <s_m_source_file>
sdf/actives_sanitized.sdf

> <i_m_source_file_index>
238

> <i_lp_mmshare_version>
49012

> <i_f3d_flags>
0

> <s_epik_input>
bjFbY0hdW2NIXWMoW2NIXWMxMiljM2MoW2NIXVtjSF1jKFtjSF0zKUMoPU8pW09IXSlbTkhdQyg9TylbQ0BIXShbQ0gzXSlbQ0gyXVtDSDJdW0NIMl1bQ0BASF0yTjRbQ0gyXVtDSDJdQyg9W0NIXUM0PU8pYzVjKEYpYyhDbClbY0hdW2NIXWM1QyhGKShGKUY=

> <s_epik_cmdline>
J2VwaWtfcHl0aG9uJywgJy1waHQnLCAnMC41JywgJy1waCcsICc3LjUnLCAnLW50JywgJy1tYScsICcyMDAnLCAnLWltYWUnLCAnPGluZmlsZS5tYWU+JywgJy1vbWFlJywgJzxvdXRmaWxlLm1hZT4n

> <r_lp_tautomer_probability>
1

> <r_epik_Ionization_Penalty>
  0.0004

> <r_epik_Ionization_Penalty_Charging>
  0.0003

> <r_epik_Ionization_Penalty_Neutral>
  0.0001

> <r_epik_State_Penalty>
 -0.0000

> <r_epik_Charging_Adjusted_Penalty>
0.000276817367347314

> <i_epik_Tot_Q>
-1

> <i_epik_Tot_abs_Q>
1

> <s_lp_Force_Field>
OPLS3e

> <r_lp_Energy>
94.249213

> <b_lp_Chiralities_Consistent>
1

> <s_lp_Variant>
sdf/actives_sanitized.sdf:238-1

$$$$
sdf/actives_sanitized.sdf:239
                    3D
 Schrodinger Suite 2020-1.
 63 67  0  0  1  0            999 V2000
   -5.0178    3.1802   -0.9202 C   0  0  0  0  0  0
   -3.7835    2.2515   -0.9348 C   0  0  2  0  0  0
   -2.8412    2.5959    0.2714 C   0  0  0  0  0  0
   -1.8315    1.5171    0.7511 C   0  0  0  0  0  0
   -0.5241    1.3685   -0.0743 C   0  0  0  0  0  0
    0.0516   -0.0864   -0.1619 C   0  0  2  0  0  0
    1.5338   -0.0978   -0.0878 N   0  0  0  0  0  0
    2.2984    0.7941   -1.0079 C   0  0  0  0  0  0
    3.7278    0.2652   -1.3007 C   0  0  0  0  0  0
    4.3812   -0.1392    0.0110 C   0  0  0  0  0  0
    3.5968   -0.7110    0.9480 C   0  0  0  0  0  0
    2.1634   -0.8856    0.8432 C   0  0  0  0  0  0
    1.5889   -1.7133    1.5526 O   0  0  0  0  0  0
    5.8605   -0.1747    0.1491 C   0  0  0  0  0  0
    6.4773    0.3090    1.3172 C   0  0  0  0  0  0
    5.7382    0.8241    2.3286 F   0  0  0  0  0  0
    7.8650    0.2856    1.4520 C   0  0  0  0  0  0
    8.6601   -0.2139    0.4248 C   0  0  0  0  0  0
    8.0690   -0.6940   -0.7416 C   0  0  0  0  0  0
    9.0704   -1.3128   -2.0068 Cl  0  0  0  0  0  0
    6.6773   -0.6765   -0.8811 C   0  0  0  0  0  0
    6.1278   -1.1671   -2.0181 F   0  0  0  0  0  0
   -0.5198   -0.8591   -1.3725 C   0  0  0  0  0  0
   -1.8763   -0.7551   -1.6699 C   0  0  0  0  0  0
   -2.3874   -1.2678   -2.8573 C   0  0  0  0  0  0
   -1.5300   -2.0063   -3.6803 C   0  0  0  0  0  0
   -0.1917   -2.1452   -3.2970 C   0  0  0  0  0  0
    0.3223   -1.5707   -2.1761 N   0  0  0  0  0  0
   -3.8004   -0.9553   -3.2032 C   0  0  0  0  0  0
   -4.7355   -1.9894   -3.3612 C   0  0  0  0  0  0
   -4.3499   -3.2831   -3.2492 F   0  0  0  0  0  0
   -6.0779   -1.7009   -3.6136 C   0  0  0  0  0  0
   -6.9722   -2.7055   -3.7575 F   0  0  0  0  0  0
   -6.5036   -0.3785   -3.7149 C   0  0  0  0  0  0
   -5.5881    0.6618   -3.5755 C   0  0  0  0  0  0
   -4.2422    0.3842   -3.3160 C   0  0  0  0  0  0
   -3.3290    1.4537   -3.3081 N   0  0  0  0  0  0
   -3.0911    2.3472   -2.3208 C   0  0  0  0  0  0
   -2.3057    3.2708   -2.5295 O   0  0  0  0  0  0
   -5.7153    2.9467   -1.7249 H   0  0  0  0  0  0
   -4.7357    4.2289   -1.0280 H   0  0  0  0  0  0
   -5.5729    3.0837    0.0134 H   0  0  0  0  0  0
   -4.1620    1.2406   -0.7855 H   0  0  0  0  0  0
   -2.3197    3.5395    0.1011 H   0  0  0  0  0  0
   -3.4802    2.7955    1.1333 H   0  0  0  0  0  0
   -1.5335    1.7707    1.7699 H   0  0  0  0  0  0
   -2.3497    0.5675    0.8753 H   0  0  0  0  0  0
   -0.6547    1.7579   -1.0826 H   0  0  0  0  0  0
    0.2108    2.0394    0.3737 H   0  0  0  0  0  0
   -0.3492   -0.6182    0.7025 H   0  0  0  0  0  0
    1.7227    1.0629   -1.8943 H   0  0  0  0  0  0
    2.4350    1.7284   -0.4615 H   0  0  0  0  0  0
    3.6333   -0.6093   -1.9462 H   0  0  0  0  0  0
    4.3175    1.0123   -1.8328 H   0  0  0  0  0  0
    4.0573   -1.1062    1.8427 H   0  0  0  0  0  0
    8.3260    0.6600    2.3543 H   0  0  0  0  0  0
    9.7346   -0.2267    0.5360 H   0  0  0  0  0  0
   -2.5442   -0.2185   -1.0266 H   0  0  0  0  0  0
   -1.8841   -2.4403   -4.6042 H   0  0  0  0  0  0
    0.5007   -2.7013   -3.9115 H   0  0  0  0  0  0
   -7.5419   -0.1592   -3.9167 H   0  0  0  0  0  0
   -5.9256    1.6813   -3.6936 H   0  0  0  0  0  0
   -2.7660    1.5417   -4.1416 H   0  0  0  0  0  0
  1  2  1  0  0  0
  1 40  1  0  0  0
  1 41  1  0  0  0
  1 42  1  0  0  0
  2  3  1  0  0  0
  2 38  1  0  0  0
  2 43  1  0  0  0
  3  4  1  0  0  0
  3 44  1  0  0  0
  3 45  1  0  0  0
  4  5  1  0  0  0
  4 46  1  0  0  0
  4 47  1  0  0  0
  5  6  1  0  0  0
  5 48  1  0  0  0
  5 49  1  0  0  0
  6  7  1  0  0  0
  6 23  1  0  0  0
  6 50  1  0  0  0
  7  8  1  0  0  0
  7 12  1  0  0  0
  8  9  1  0  0  0
  8 51  1  0  0  0
  8 52  1  0  0  0
  9 10  1  0  0  0
  9 53  1  0  0  0
  9 54  1  0  0  0
 10 11  2  0  0  0
 10 14  1  0  0  0
 11 12  1  0  0  0
 11 55  1  0  0  0
 12 13  2  0  0  0
 14 15  2  0  0  0
 14 21  1  0  0  0
 15 16  1  0  0  0
 15 17  1  0  0  0
 17 18  2  0  0  0
 17 56  1  0  0  0
 18 19  1  0  0  0
 18 57  1  0  0  0
 19 20  1  0  0  0
 19 21  2  0  0  0
 21 22  1  0  0  0
 23 24  1  0  0  0
 23 28  2  0  0  0
 24 25  2  0  0  0
 24 58  1  0  0  0
 25 26  1  0  0  0
 25 29  1  0  0  0
 26 27  2  0  0  0
 26 59  1  0  0  0
 27 28  1  0  0  0
 27 60  1  0  0  0
 29 30  2  0  0  0
 29 36  1  0  0  0
 30 31  1  0  0  0
 30 32  1  0  0  0
 32 33  1  0  0  0
 32 34  2  0  0  0
 34 35  1  0  0  0
 34 61  1  0  0  0
 35 36  2  0  0  0
 35 62  1  0  0  0
 36 37  1  0  0  0
 37 38  1  0  0  0
 37 63  1  0  0  0
 38 39  2  0  0  0
M  END
> <chembl_id>
CHEMBL4112077

> <chembl_pref_name>
None

> <i_m_ct_stereo_status>
1

> <s_m_source_file>
sdf/actives_sanitized.sdf

> <i_m_source_file_index>
239

> <i_lp_mmshare_version>
49012

> <i_f3d_flags>
0

> <s_epik_input>
bjFbY0hdW2NIXWMoW2NIXWMxMiljM2MoW2NIXVtjSF1jKEYpYzNGKVtOSF1DKD1PKVtDQEhdKFtDSDNdKVtDSDJdW0NIMl1bQ0gyXVtDQEBIXTJONFtDSDJdW0NIMl1DKD1bQ0hdQzQ9TyljNWMoRilbY0hdW2NIXWMoQ2wpYzVG

> <s_epik_cmdline>
J2VwaWtfcHl0aG9uJywgJy1waHQnLCAnMC41JywgJy1waCcsICc3LjUnLCAnLW50JywgJy1tYScsICcyMDAnLCAnLWltYWUnLCAnPGluZmlsZS5tYWU+JywgJy1vbWFlJywgJzxvdXRmaWxlLm1hZT4n

> <r_lp_tautomer_probability>
1

> <r_epik_Ionization_Penalty>
  0.0001

> <r_epik_Ionization_Penalty_Charging>
  0.0000

> <r_epik_Ionization_Penalty_Neutral>
  0.0001

> <r_epik_State_Penalty>
 -0.0000

> <r_epik_Charging_Adjusted_Penalty>
0

> <i_epik_Tot_Q>
0

> <i_epik_Tot_abs_Q>
0

> <s_lp_Force_Field>
OPLS3e

> <r_lp_Energy>
96.892828

> <b_lp_Chiralities_Consistent>
1

> <s_lp_Variant>
sdf/actives_sanitized.sdf:239-1

$$$$
sdf/actives_sanitized.sdf:240
                    3D
 Schrodinger Suite 2020-1.
 72 77  0  0  1  0            999 V2000
   -5.2429    1.7309   -0.9831 C   0  0  0  0  0  0
   -4.1125    0.9291   -1.6598 C   0  0  2  0  0  0
   -2.7288    1.6242   -1.4961 C   0  0  0  0  0  0
   -2.1024    1.5188   -0.0805 C   0  0  0  0  0  0
   -0.5523    1.4244   -0.0661 C   0  0  0  0  0  0
    0.0500   -0.0123   -0.2030 C   0  0  2  0  0  0
    1.5319   -0.0356   -0.1061 N   0  0  0  0  0  0
    2.3302    1.0174   -0.8029 C   0  0  0  0  0  0
    3.7655    0.5527   -1.1699 C   0  0  0  0  0  0
    4.3800   -0.1495    0.0283 C   0  0  0  0  0  0
    3.5681   -0.9145    0.7854 C   0  0  0  0  0  0
    2.1378   -1.0428    0.6043 C   0  0  0  0  0  0
    1.5422   -2.0148    1.0721 O   0  0  0  0  0  0
    5.8538   -0.2367    0.1899 C   0  0  0  0  0  0
    6.4451   -0.0055    1.4445 C   0  0  0  0  0  0
    5.6846    0.3094    2.5201 F   0  0  0  0  0  0
    7.8284   -0.0797    1.6038 C   0  0  0  0  0  0
    8.6434   -0.3810    0.5165 C   0  0  0  0  0  0
    8.0765   -0.6100   -0.7354 C   0  0  0  0  0  0
    9.1024   -0.9845   -2.0748 Cl  0  0  0  0  0  0
    6.6895   -0.5394   -0.9006 C   0  0  0  0  0  0
    6.1614   -0.7850   -2.1238 F   0  0  0  0  0  0
   -0.4972   -0.7600   -1.4241 C   0  0  0  0  0  0
   -1.7006   -1.4603   -1.3145 C   0  0  0  0  0  0
   -2.3372   -1.9104   -2.4744 C   0  0  0  0  0  0
   -1.6751   -1.7646   -3.6996 C   0  0  0  0  0  0
   -0.4259   -1.1408   -3.7203 C   0  0  0  0  0  0
    0.1584   -0.6229   -2.6098 N   0  0  0  0  0  0
   -3.7213   -2.4425   -2.3878 C   0  0  0  0  0  0
   -3.9280   -3.6414   -1.6974 C   0  0  0  0  0  0
   -5.2207   -4.1819   -1.5702 C   0  0  0  0  0  0
   -5.7746   -5.3671   -0.9443 C   0  0  0  0  0  0
   -5.0379   -6.4036   -0.2028 C   0  0  0  0  0  0
   -5.7064   -7.3110    0.3402 O   0  0  0  0  0  0
   -3.7919   -6.3055   -0.1627 O   0  5  0  0  0  0
   -7.1512   -5.3228   -1.1883 C   0  0  0  0  0  0
   -8.2843   -6.2550   -0.8096 C   0  0  0  0  0  0
   -7.4370   -4.1872   -1.9032 N   0  0  0  0  0  0
   -6.2980   -3.4650   -2.1595 C   0  0  0  0  0  0
   -6.1227   -2.2625   -2.8459 C   0  0  0  0  0  0
   -4.8248   -1.7548   -2.9350 C   0  0  0  0  0  0
   -4.6938   -0.5521   -3.6480 N   0  0  0  0  0  0
   -4.4275    0.6809   -3.1592 C   0  0  0  0  0  0
   -4.4307    1.6433   -3.9262 O   0  0  0  0  0  0
   -6.2017    1.2174   -1.0699 H   0  0  0  0  0  0
   -5.3597    2.7209   -1.4267 H   0  0  0  0  0  0
   -5.0462    1.8677    0.0806 H   0  0  0  0  0  0
   -4.0689   -0.0294   -1.1473 H   0  0  0  0  0  0
   -2.0323    1.2080   -2.2234 H   0  0  0  0  0  0
   -2.8017    2.6755   -1.7803 H   0  0  0  0  0  0
   -2.4113    2.3954    0.4907 H   0  0  0  0  0  0
   -2.5145    0.6712    0.4678 H   0  0  0  0  0  0
   -0.1533    2.0944   -0.8279 H   0  0  0  0  0  0
   -0.2072    1.8323    0.8853 H   0  0  0  0  0  0
   -0.3371   -0.5508    0.6647 H   0  0  0  0  0  0
    1.7879    1.4618   -1.6374 H   0  0  0  0  0  0
    2.4418    1.8236   -0.0764 H   0  0  0  0  0  0
    3.6831   -0.1513   -1.9992 H   0  0  0  0  0  0
    4.3744    1.3936   -1.5035 H   0  0  0  0  0  0
    4.0018   -1.5122    1.5750 H   0  0  0  0  0  0
    8.2710    0.1012    2.5723 H   0  0  0  0  0  0
    9.7143   -0.4355    0.6473 H   0  0  0  0  0  0
   -2.1994   -1.5398   -0.3591 H   0  0  0  0  0  0
   -2.1290   -2.1084   -4.6177 H   0  0  0  0  0  0
    0.1079   -1.0107   -4.6500 H   0  0  0  0  0  0
   -3.0811   -4.1532   -1.2644 H   0  0  0  0  0  0
   -8.0371   -7.2946   -1.0258 H   0  0  0  0  0  0
   -9.2085   -6.0371   -1.3464 H   0  0  0  0  0  0
   -8.5078   -6.1950    0.2557 H   0  0  0  0  0  0
   -8.3791   -3.9560   -2.1832 H   0  0  0  0  0  0
   -6.9619   -1.7396   -3.2827 H   0  0  0  0  0  0
   -4.9498   -0.6038   -4.6231 H   0  0  0  0  0  0
  1  2  1  0  0  0
  1 45  1  0  0  0
  1 46  1  0  0  0
  1 47  1  0  0  0
  2  3  1  0  0  0
  2 43  1  0  0  0
  2 48  1  0  0  0
  3  4  1  0  0  0
  3 49  1  0  0  0
  3 50  1  0  0  0
  4  5  1  0  0  0
  4 51  1  0  0  0
  4 52  1  0  0  0
  5  6  1  0  0  0
  5 53  1  0  0  0
  5 54  1  0  0  0
  6  7  1  0  0  0
  6 23  1  0  0  0
  6 55  1  0  0  0
  7  8  1  0  0  0
  7 12  1  0  0  0
  8  9  1  0  0  0
  8 56  1  0  0  0
  8 57  1  0  0  0
  9 10  1  0  0  0
  9 58  1  0  0  0
  9 59  1  0  0  0
 10 11  2  0  0  0
 10 14  1  0  0  0
 11 12  1  0  0  0
 11 60  1  0  0  0
 12 13  2  0  0  0
 14 15  2  0  0  0
 14 21  1  0  0  0
 15 16  1  0  0  0
 15 17  1  0  0  0
 17 18  2  0  0  0
 17 61  1  0  0  0
 18 19  1  0  0  0
 18 62  1  0  0  0
 19 20  1  0  0  0
 19 21  2  0  0  0
 21 22  1  0  0  0
 23 24  1  0  0  0
 23 28  2  0  0  0
 24 25  2  0  0  0
 24 63  1  0  0  0
 25 26  1  0  0  0
 25 29  1  0  0  0
 26 27  2  0  0  0
 26 64  1  0  0  0
 27 28  1  0  0  0
 27 65  1  0  0  0
 29 30  2  0  0  0
 29 41  1  0  0  0
 30 31  1  0  0  0
 30 66  1  0  0  0
 31 32  1  0  0  0
 31 39  2  0  0  0
 32 33  1  0  0  0
 32 36  2  0  0  0
 33 34  2  0  0  0
 33 35  1  0  0  0
 36 37  1  0  0  0
 36 38  1  0  0  0
 37 67  1  0  0  0
 37 68  1  0  0  0
 37 69  1  0  0  0
 38 39  1  0  0  0
 38 70  1  0  0  0
 39 40  1  0  0  0
 40 41  2  0  0  0
 40 71  1  0  0  0
 41 42  1  0  0  0
 42 43  1  0  0  0
 42 72  1  0  0  0
 43 44  2  0  0  0
M  CHG  1  35  -1
M  END
> <chembl_id>
CHEMBL4109568

> <chembl_pref_name>
None

> <i_m_ct_stereo_status>
1

> <s_m_source_file>
sdf/actives_sanitized.sdf

> <i_m_source_file_index>
240

> <i_lp_mmshare_version>
49012

> <i_f3d_flags>
0

> <s_epik_input>
Tz1DKFtPSF0pYyhjKFtDSDNdKVtuSF0xKWMoW2NIXTIpYzFbY0hdYyhjMmMoW2NIXWMzNClbY0hdW2NIXW40KVtOSF1DKD1PKVtDQEhdKFtDSDNdKVtDSDJdW0NIMl1bQ0gyXVtDQEBIXTNONVtDSDJdW0NIMl1DKD1bQ0hdQzU9TyljNmMoRilbY0hdW2NIXWMoQ2wpYzZG

> <s_epik_cmdline>
J2VwaWtfcHl0aG9uJywgJy1waHQnLCAnMC41JywgJy1waCcsICc3LjUnLCAnLW50JywgJy1tYScsICcyMDAnLCAnLWltYWUnLCAnPGluZmlsZS5tYWU+JywgJy1vbWFlJywgJzxvdXRmaWxlLm1hZT4n

> <r_lp_tautomer_probability>
1

> <r_epik_Ionization_Penalty>
  0.0011

> <r_epik_Ionization_Penalty_Charging>
  0.0010

> <r_epik_Ionization_Penalty_Neutral>
  0.0001

> <r_epik_State_Penalty>
 -0.0000

> <r_epik_Charging_Adjusted_Penalty>
0.00104365118983577

> <i_epik_Tot_Q>
-1

> <i_epik_Tot_abs_Q>
1

> <s_lp_Force_Field>
OPLS3e

> <r_lp_Energy>
95.20798

> <b_lp_Chiralities_Consistent>
1

> <s_lp_Variant>
sdf/actives_sanitized.sdf:240-1

$$$$
sdf/actives_sanitized.sdf:241
                    3D
 Schrodinger Suite 2020-1.
 70 75  0  0  1  0            999 V2000
   -5.2534    1.7444   -0.9667 C   0  0  0  0  0  0
   -4.1230    0.9513   -1.6537 C   0  0  2  0  0  0
   -2.7416    1.6530   -1.4945 C   0  0  0  0  0  0
   -2.1085    1.5475   -0.0816 C   0  0  0  0  0  0
   -0.5582    1.4506   -0.0714 C   0  0  0  0  0  0
    0.0386    0.0120   -0.2099 C   0  0  2  0  0  0
    1.5194   -0.0230   -0.1066 N   0  0  0  0  0  0
    2.3289    1.0291   -0.7914 C   0  0  0  0  0  0
    3.7601    0.5539   -1.1610 C   0  0  0  0  0  0
    4.3654   -0.1677    0.0303 C   0  0  0  0  0  0
    3.5452   -0.9306    0.7803 C   0  0  0  0  0  0
    2.1141   -1.0428    0.5956 C   0  0  0  0  0  0
    1.5077   -2.0138    1.0518 O   0  0  0  0  0  0
    5.8371   -0.2761    0.1896 C   0  0  0  0  0  0
    6.4338   -0.0415    1.4408 C   0  0  0  0  0  0
    5.6794    0.2940    2.5144 F   0  0  0  0  0  0
    7.8162   -0.1345    1.5978 C   0  0  0  0  0  0
    8.6242   -0.4602    0.5121 C   0  0  0  0  0  0
    8.0511   -0.6950   -0.7360 C   0  0  0  0  0  0
    9.0678   -1.1020   -2.0729 Cl  0  0  0  0  0  0
    6.6650   -0.6038   -0.8993 C   0  0  0  0  0  0
    6.1295   -0.8533   -2.1186 F   0  0  0  0  0  0
   -0.5062   -0.7264   -1.4368 C   0  0  0  0  0  0
   -1.7056   -1.4330   -1.3312 C   0  0  0  0  0  0
   -2.3435   -1.8737   -2.4939 C   0  0  0  0  0  0
   -1.6872   -1.7091   -3.7197 C   0  0  0  0  0  0
   -0.4408   -1.0793   -3.7373 C   0  0  0  0  0  0
    0.1453   -0.5726   -2.6227 N   0  0  0  0  0  0
   -3.7226   -2.4171   -2.4054 C   0  0  0  0  0  0
   -3.9125   -3.6259   -1.7271 C   0  0  0  0  0  0
   -5.2000   -4.1624   -1.5979 C   0  0  0  0  0  0
   -5.7385   -5.3426   -0.9902 C   0  0  0  0  0  0
   -7.1064   -5.3397   -1.1892 C   0  0  0  0  0  0
   -8.1788   -6.3192   -0.7789 C   0  0  0  0  0  0
   -7.4236   -4.2020   -1.8927 N   0  0  0  0  0  0
   -6.2952   -3.4561   -2.1623 C   0  0  0  0  0  0
   -6.1335   -2.2452   -2.8383 C   0  0  0  0  0  0
   -4.8370   -1.7303   -2.9362 C   0  0  0  0  0  0
   -4.7181   -0.5226   -3.6432 N   0  0  0  0  0  0
   -4.4466    0.7085   -3.1521 C   0  0  0  0  0  0
   -4.4528    1.6734   -3.9159 O   0  0  0  0  0  0
   -6.2115    1.2296   -1.0541 H   0  0  0  0  0  0
   -5.3740    2.7378   -1.4017 H   0  0  0  0  0  0
   -5.0534    1.8726    0.0975 H   0  0  0  0  0  0
   -4.0722   -0.0093   -1.1463 H   0  0  0  0  0  0
   -2.0461    1.2438   -2.2266 H   0  0  0  0  0  0
   -2.8221    2.7048   -1.7748 H   0  0  0  0  0  0
   -2.4138    2.4256    0.4893 H   0  0  0  0  0  0
   -2.5207    0.7014    0.4692 H   0  0  0  0  0  0
   -0.1590    2.1192   -0.8344 H   0  0  0  0  0  0
   -0.2101    1.8573    0.8794 H   0  0  0  0  0  0
   -0.3548   -0.5275    0.6542 H   0  0  0  0  0  0
    1.7926    1.4874   -1.6222 H   0  0  0  0  0  0
    2.4467    1.8269   -0.0567 H   0  0  0  0  0  0
    3.6724   -0.1392   -1.9989 H   0  0  0  0  0  0
    4.3780    1.3923   -1.4839 H   0  0  0  0  0  0
    3.9726   -1.5399    1.5645 H   0  0  0  0  0  0
    8.2635    0.0503    2.5635 H   0  0  0  0  0  0
    9.6944   -0.5295    0.6414 H   0  0  0  0  0  0
   -2.2009   -1.5236   -0.3751 H   0  0  0  0  0  0
   -2.1424   -2.0435   -4.6406 H   0  0  0  0  0  0
    0.0893   -0.9357   -4.6671 H   0  0  0  0  0  0
   -3.0656   -4.1482   -1.3053 H   0  0  0  0  0  0
   -5.1942   -6.1137   -0.4654 H   0  0  0  0  0  0
   -7.7666   -7.1645   -0.2273 H   0  0  0  0  0  0
   -8.7039   -6.7263   -1.6433 H   0  0  0  0  0  0
   -8.9272   -5.8533   -0.1375 H   0  0  0  0  0  0
   -8.3739   -3.9831   -2.1545 H   0  0  0  0  0  0
   -6.9792   -1.7218   -3.2617 H   0  0  0  0  0  0
   -4.9815   -0.5699   -4.6167 H   0  0  0  0  0  0
  1  2  1  0  0  0
  1 42  1  0  0  0
  1 43  1  0  0  0
  1 44  1  0  0  0
  2  3  1  0  0  0
  2 40  1  0  0  0
  2 45  1  0  0  0
  3  4  1  0  0  0
  3 46  1  0  0  0
  3 47  1  0  0  0
  4  5  1  0  0  0
  4 48  1  0  0  0
  4 49  1  0  0  0
  5  6  1  0  0  0
  5 50  1  0  0  0
  5 51  1  0  0  0
  6  7  1  0  0  0
  6 23  1  0  0  0
  6 52  1  0  0  0
  7  8  1  0  0  0
  7 12  1  0  0  0
  8  9  1  0  0  0
  8 53  1  0  0  0
  8 54  1  0  0  0
  9 10  1  0  0  0
  9 55  1  0  0  0
  9 56  1  0  0  0
 10 11  2  0  0  0
 10 14  1  0  0  0
 11 12  1  0  0  0
 11 57  1  0  0  0
 12 13  2  0  0  0
 14 15  2  0  0  0
 14 21  1  0  0  0
 15 16  1  0  0  0
 15 17  1  0  0  0
 17 18  2  0  0  0
 17 58  1  0  0  0
 18 19  1  0  0  0
 18 59  1  0  0  0
 19 20  1  0  0  0
 19 21  2  0  0  0
 21 22  1  0  0  0
 23 24  1  0  0  0
 23 28  2  0  0  0
 24 25  2  0  0  0
 24 60  1  0  0  0
 25 26  1  0  0  0
 25 29  1  0  0  0
 26 27  2  0  0  0
 26 61  1  0  0  0
 27 28  1  0  0  0
 27 62  1  0  0  0
 29 30  2  0  0  0
 29 38  1  0  0  0
 30 31  1  0  0  0
 30 63  1  0  0  0
 31 32  1  0  0  0
 31 36  2  0  0  0
 32 33  2  0  0  0
 32 64  1  0  0  0
 33 34  1  0  0  0
 33 35  1  0  0  0
 34 65  1  0  0  0
 34 66  1  0  0  0
 34 67  1  0  0  0
 35 36  1  0  0  0
 35 68  1  0  0  0
 36 37  1  0  0  0
 37 38  2  0  0  0
 37 69  1  0  0  0
 38 39  1  0  0  0
 39 40  1  0  0  0
 39 70  1  0  0  0
 40 41  2  0  0  0
M  END
> <chembl_id>
CHEMBL4107699

> <chembl_pref_name>
None

> <i_m_ct_stereo_status>
1

> <s_m_source_file>
sdf/actives_sanitized.sdf

> <i_m_source_file_index>
241

> <i_lp_mmshare_version>
49012

> <i_f3d_flags>
0

> <s_epik_input>
W0NIM11jKFtuSF0xKVtjSF1jKFtjSF0yKWMxW2NIXWMoYzJjKFtjSF1jMzQpW2NIXVtjSF1uNClbTkhdQyg9TylbQ0BIXShbQ0gzXSlbQ0gyXVtDSDJdW0NIMl1bQ0BASF0zTjVbQ0gyXVtDSDJdQyg9W0NIXUM1PU8pYzZjKEYpW2NIXVtjSF1jKENsKWM2Rg==

> <s_epik_cmdline>
J2VwaWtfcHl0aG9uJywgJy1waHQnLCAnMC41JywgJy1waCcsICc3LjUnLCAnLW50JywgJy1tYScsICcyMDAnLCAnLWltYWUnLCAnPGluZmlsZS5tYWU+JywgJy1vbWFlJywgJzxvdXRmaWxlLm1hZT4n

> <r_lp_tautomer_probability>
1

> <r_epik_Ionization_Penalty>
  0.0001

> <r_epik_Ionization_Penalty_Charging>
  0.0000

> <r_epik_Ionization_Penalty_Neutral>
  0.0001

> <r_epik_State_Penalty>
 -0.0000

> <r_epik_Charging_Adjusted_Penalty>
0

> <i_epik_Tot_Q>
0

> <i_epik_Tot_abs_Q>
0

> <s_lp_Force_Field>
OPLS3e

> <r_lp_Energy>
93.709706

> <b_lp_Chiralities_Consistent>
1

> <s_lp_Variant>
sdf/actives_sanitized.sdf:241-1

$$$$
sdf/actives_sanitized.sdf:242
                    3D
 Schrodinger Suite 2020-1.
 63 67  0  0  1  0            999 V2000
   -5.3021    0.0645    1.2493 C   0  0  0  0  0  0
   -4.2175    0.1292    0.1535 C   0  0  2  0  0  0
   -3.0351    1.0645    0.5938 C   0  0  0  0  0  0
   -2.1409    1.7286   -0.4969 C   0  0  0  0  0  0
   -0.6025    1.6073   -0.3042 C   0  0  0  0  0  0
    0.0157    0.1787   -0.4586 C   0  0  2  0  0  0
    1.5076    0.1062   -0.4003 N   0  0  0  0  0  0
    2.3038    1.3069    0.0029 C   0  0  0  0  0  0
    3.7709    1.2423   -0.4951 C   0  0  0  0  0  0
    4.3571   -0.1055   -0.1156 C   0  0  0  0  0  0
    3.5358   -1.1735   -0.1556 C   0  0  0  0  0  0
    2.1141   -1.1332   -0.4307 C   0  0  0  0  0  0
    1.5347   -2.1881   -0.6955 O   0  0  0  0  0  0
    5.8265   -0.2934    0.0117 C   0  0  0  0  0  0
    6.3563   -1.0616    1.0646 C   0  0  0  0  0  0
    5.5419   -1.6323    1.9839 F   0  0  0  0  0  0
    7.7332   -1.2372    1.1961 C   0  0  0  0  0  0
    8.6047   -0.6469    0.2860 C   0  0  0  0  0  0
    8.1010    0.1209   -0.7613 C   0  0  0  0  0  0
    9.1968    0.8461   -1.8837 Cl  0  0  0  0  0  0
    6.7205    0.2979   -0.9006 C   0  0  0  0  0  0
    6.2577    1.0340   -1.9393 F   0  0  0  0  0  0
   -0.6305   -0.5355   -1.6512 C   0  0  0  0  0  0
   -1.6721   -1.4296   -1.4160 C   0  0  0  0  0  0
   -2.4968   -1.8035   -2.4769 C   0  0  0  0  0  0
   -2.1574   -1.3885   -3.7700 C   0  0  0  0  0  0
   -1.0317   -0.5775   -3.9405 C   0  0  0  0  0  0
   -0.2834   -0.1241   -2.9011 N   0  0  0  0  0  0
   -3.7500   -2.5381   -2.1900 C   0  0  0  0  0  0
   -3.7089   -3.9305   -2.0580 C   0  0  0  0  0  0
   -4.8604   -4.6537   -1.7501 C   0  0  0  0  0  0
   -4.7979   -5.9992   -1.6269 F   0  0  0  0  0  0
   -6.0726   -3.9898   -1.5684 C   0  0  0  0  0  0
   -7.1920   -4.6884   -1.2721 F   0  0  0  0  0  0
   -6.1323   -2.6030   -1.6932 C   0  0  0  0  0  0
   -4.9790   -1.8702   -1.9911 C   0  0  0  0  0  0
   -5.1200   -0.4801   -2.1399 N   0  0  0  0  0  0
   -4.8702    0.4731   -1.2124 C   0  0  0  0  0  0
   -5.1686    1.6429   -1.4487 O   0  0  0  0  0  0
   -6.0778   -0.6633    1.0050 H   0  0  0  0  0  0
   -5.7921    1.0291    1.3917 H   0  0  0  0  0  0
   -4.8750   -0.2318    2.2080 H   0  0  0  0  0  0
   -3.8157   -0.8775    0.0995 H   0  0  0  0  0  0
   -3.4403    1.8772    1.1997 H   0  0  0  0  0  0
   -2.4025    0.5018    1.2818 H   0  0  0  0  0  0
   -2.3939    1.3756   -1.4947 H   0  0  0  0  0  0
   -2.3904    2.7903   -0.5308 H   0  0  0  0  0  0
   -0.1412    2.2692   -1.0386 H   0  0  0  0  0  0
   -0.3438    2.0124    0.6751 H   0  0  0  0  0  0
   -0.3021   -0.3527    0.4405 H   0  0  0  0  0  0
    1.8167    2.2607   -0.1880 H   0  0  0  0  0  0
    2.3805    1.2426    1.0897 H   0  0  0  0  0  0
    3.7630    1.3506   -1.5805 H   0  0  0  0  0  0
    4.3593    2.0630   -0.0833 H   0  0  0  0  0  0
    3.9570   -2.1564    0.0047 H   0  0  0  0  0  0
    8.1270   -1.8289    2.0096 H   0  0  0  0  0  0
    9.6704   -0.7858    0.3960 H   0  0  0  0  0  0
   -1.9096   -1.7253   -0.4052 H   0  0  0  0  0  0
   -2.7640   -1.6674   -4.6194 H   0  0  0  0  0  0
   -0.7435   -0.2369   -4.9241 H   0  0  0  0  0  0
   -2.7747   -4.4578   -2.1904 H   0  0  0  0  0  0
   -7.0788   -2.0999   -1.5543 H   0  0  0  0  0  0
   -5.5584   -0.1776   -2.9976 H   0  0  0  0  0  0
  1  2  1  0  0  0
  1 40  1  0  0  0
  1 41  1  0  0  0
  1 42  1  0  0  0
  2  3  1  0  0  0
  2 38  1  0  0  0
  2 43  1  0  0  0
  3  4  1  0  0  0
  3 44  1  0  0  0
  3 45  1  0  0  0
  4  5  1  0  0  0
  4 46  1  0  0  0
  4 47  1  0  0  0
  5  6  1  0  0  0
  5 48  1  0  0  0
  5 49  1  0  0  0
  6  7  1  0  0  0
  6 23  1  0  0  0
  6 50  1  0  0  0
  7  8  1  0  0  0
  7 12  1  0  0  0
  8  9  1  0  0  0
  8 51  1  0  0  0
  8 52  1  0  0  0
  9 10  1  0  0  0
  9 53  1  0  0  0
  9 54  1  0  0  0
 10 11  2  0  0  0
 10 14  1  0  0  0
 11 12  1  0  0  0
 11 55  1  0  0  0
 12 13  2  0  0  0
 14 15  2  0  0  0
 14 21  1  0  0  0
 15 16  1  0  0  0
 15 17  1  0  0  0
 17 18  2  0  0  0
 17 56  1  0  0  0
 18 19  1  0  0  0
 18 57  1  0  0  0
 19 20  1  0  0  0
 19 21  2  0  0  0
 21 22  1  0  0  0
 23 24  1  0  0  0
 23 28  2  0  0  0
 24 25  2  0  0  0
 24 58  1  0  0  0
 25 26  1  0  0  0
 25 29  1  0  0  0
 26 27  2  0  0  0
 26 59  1  0  0  0
 27 28  1  0  0  0
 27 60  1  0  0  0
 29 30  2  0  0  0
 29 36  1  0  0  0
 30 31  1  0  0  0
 30 61  1  0  0  0
 31 32  1  0  0  0
 31 33  2  0  0  0
 33 34  1  0  0  0
 33 35  1  0  0  0
 35 36  2  0  0  0
 35 62  1  0  0  0
 36 37  1  0  0  0
 37 38  1  0  0  0
 37 63  1  0  0  0
 38 39  2  0  0  0
M  END
> <chembl_id>
CHEMBL4111353

> <chembl_pref_name>
None

> <i_m_ct_stereo_status>
1

> <s_m_source_file>
sdf/actives_sanitized.sdf

> <i_m_source_file_index>
242

> <i_lp_mmshare_version>
49012

> <i_f3d_flags>
0

> <s_epik_input>
bjFbY0hdW2NIXWMoW2NIXWMxMiljM2MoW2NIXWMoRiljKEYpW2NIXTMpW05IXUMoPU8pW0NASF0oW0NIM10pW0NIMl1bQ0gyXVtDSDJdW0NAQEhdMk40W0NIMl1bQ0gyXUMoPVtDSF1DND1PKWM1YyhGKVtjSF1bY0hdYyhDbCljNUY=

> <s_epik_cmdline>
J2VwaWtfcHl0aG9uJywgJy1waHQnLCAnMC41JywgJy1waCcsICc3LjUnLCAnLW50JywgJy1tYScsICcyMDAnLCAnLWltYWUnLCAnPGluZmlsZS5tYWU+JywgJy1vbWFlJywgJzxvdXRmaWxlLm1hZT4n

> <r_lp_tautomer_probability>
1

> <r_epik_Ionization_Penalty>
  0.0001

> <r_epik_Ionization_Penalty_Charging>
  0.0000

> <r_epik_Ionization_Penalty_Neutral>
  0.0001

> <r_epik_State_Penalty>
 -0.0000

> <r_epik_Charging_Adjusted_Penalty>
0

> <i_epik_Tot_Q>
0

> <i_epik_Tot_abs_Q>
0

> <s_lp_Force_Field>
OPLS3e

> <r_lp_Energy>
97.710733

> <b_lp_Chiralities_Consistent>
1

> <s_lp_Variant>
sdf/actives_sanitized.sdf:242-1

$$$$
sdf/actives_sanitized.sdf:243
                    3D
 Schrodinger Suite 2020-1.
 63 67  0  0  1  0            999 V2000
   -5.2929   -0.0692    1.3146 C   0  0  0  0  0  0
   -4.2126    0.0525    0.2194 C   0  0  2  0  0  0
   -3.0201    0.9497    0.7087 C   0  0  0  0  0  0
   -2.1384    1.6863   -0.3447 C   0  0  0  0  0  0
   -0.5989    1.5603   -0.1705 C   0  0  0  0  0  0
    0.0239    0.1461   -0.4144 C   0  0  2  0  0  0
    1.5167    0.0775   -0.3649 N   0  0  0  0  0  0
    2.3062    1.2570    0.1114 C   0  0  0  0  0  0
    3.7789    1.2340   -0.3740 C   0  0  0  0  0  0
    4.3561   -0.1361   -0.0967 C   0  0  0  0  0  0
    3.5501   -1.2075   -0.2026 C   0  0  0  0  0  0
    2.1278   -1.1562   -0.4698 C   0  0  0  0  0  0
    1.5513   -2.1955   -0.7953 O   0  0  0  0  0  0
    5.8158   -0.3127    0.0053 C   0  0  0  0  0  0
    6.4463   -0.3482    1.2597 C   0  0  0  0  0  0
    5.4482   -0.1727    2.8776 Br  0  0  0  0  0  0
    7.8292   -0.5124    1.3447 C   0  0  0  0  0  0
    8.5942   -0.6392    0.1875 C   0  0  0  0  0  0
    7.9794   -0.6018   -1.0630 C   0  0  0  0  0  0
    8.9430   -0.7562   -2.4890 Cl  0  0  0  0  0  0
    6.5938   -0.4387   -1.1557 C   0  0  0  0  0  0
    6.0040   -0.4013   -2.3754 F   0  0  0  0  0  0
   -0.6256   -0.4958   -1.6458 C   0  0  0  0  0  0
   -1.6700   -1.3995   -1.4627 C   0  0  0  0  0  0
   -2.4975   -1.7070   -2.5427 C   0  0  0  0  0  0
   -2.1594   -1.2151   -3.8090 C   0  0  0  0  0  0
   -1.0320   -0.3977   -3.9325 C   0  0  0  0  0  0
   -0.2800   -0.0106   -2.8693 N   0  0  0  0  0  0
   -3.7516   -2.4565   -2.3000 C   0  0  0  0  0  0
   -3.7137   -3.8548   -2.2650 C   0  0  0  0  0  0
   -4.8663   -4.5950   -2.0047 C   0  0  0  0  0  0
   -4.8075   -5.9461   -1.9769 F   0  0  0  0  0  0
   -6.0762   -3.9423   -1.7733 C   0  0  0  0  0  0
   -7.1969   -4.6571   -1.5238 F   0  0  0  0  0  0
   -6.1327   -2.5501   -1.8010 C   0  0  0  0  0  0
   -4.9785   -1.8013   -2.0519 C   0  0  0  0  0  0
   -5.1177   -0.4043   -2.1081 N   0  0  0  0  0  0
   -4.8685    0.4849   -1.1192 C   0  0  0  0  0  0
   -5.1685    1.6676   -1.2767 O   0  0  0  0  0  0
   -6.0779   -0.7712    1.0284 H   0  0  0  0  0  0
   -5.7714    0.8898    1.5198 H   0  0  0  0  0  0
   -4.8648   -0.4302    2.2505 H   0  0  0  0  0  0
   -3.8193   -0.9524    0.1021 H   0  0  0  0  0  0
   -3.4115    1.7187    1.3773 H   0  0  0  0  0  0
   -2.3807    0.3362    1.3450 H   0  0  0  0  0  0
   -2.3967    1.3952   -1.3611 H   0  0  0  0  0  0
   -2.3935    2.7466   -0.3102 H   0  0  0  0  0  0
   -0.1458    2.2669   -0.8675 H   0  0  0  0  0  0
   -0.3355    1.9069    0.8296 H   0  0  0  0  0  0
   -0.2880   -0.4414    0.4511 H   0  0  0  0  0  0
    1.8147    2.2180   -0.0228 H   0  0  0  0  0  0
    2.3767    1.1264    1.1928 H   0  0  0  0  0  0
    3.7978    1.4257   -1.4479 H   0  0  0  0  0  0
    4.3649    2.0173    0.1082 H   0  0  0  0  0  0
    3.9864   -2.1919   -0.1022 H   0  0  0  0  0  0
    8.3119   -0.5405    2.3108 H   0  0  0  0  0  0
    9.6644   -0.7654    0.2636 H   0  0  0  0  0  0
   -1.9073   -1.7545   -0.4710 H   0  0  0  0  0  0
   -2.7680   -1.4405   -4.6726 H   0  0  0  0  0  0
   -0.7450    0.0019   -4.8939 H   0  0  0  0  0  0
   -2.7816   -4.3740   -2.4378 H   0  0  0  0  0  0
   -7.0778   -2.0559   -1.6253 H   0  0  0  0  0  0
   -5.5541   -0.0452   -2.9447 H   0  0  0  0  0  0
  1  2  1  0  0  0
  1 40  1  0  0  0
  1 41  1  0  0  0
  1 42  1  0  0  0
  2  3  1  0  0  0
  2 38  1  0  0  0
  2 43  1  0  0  0
  3  4  1  0  0  0
  3 44  1  0  0  0
  3 45  1  0  0  0
  4  5  1  0  0  0
  4 46  1  0  0  0
  4 47  1  0  0  0
  5  6  1  0  0  0
  5 48  1  0  0  0
  5 49  1  0  0  0
  6  7  1  0  0  0
  6 23  1  0  0  0
  6 50  1  0  0  0
  7  8  1  0  0  0
  7 12  1  0  0  0
  8  9  1  0  0  0
  8 51  1  0  0  0
  8 52  1  0  0  0
  9 10  1  0  0  0
  9 53  1  0  0  0
  9 54  1  0  0  0
 10 11  2  0  0  0
 10 14  1  0  0  0
 11 12  1  0  0  0
 11 55  1  0  0  0
 12 13  2  0  0  0
 14 15  2  0  0  0
 14 21  1  0  0  0
 15 16  1  0  0  0
 15 17  1  0  0  0
 17 18  2  0  0  0
 17 56  1  0  0  0
 18 19  1  0  0  0
 18 57  1  0  0  0
 19 20  1  0  0  0
 19 21  2  0  0  0
 21 22  1  0  0  0
 23 24  1  0  0  0
 23 28  2  0  0  0
 24 25  2  0  0  0
 24 58  1  0  0  0
 25 26  1  0  0  0
 25 29  1  0  0  0
 26 27  2  0  0  0
 26 59  1  0  0  0
 27 28  1  0  0  0
 27 60  1  0  0  0
 29 30  2  0  0  0
 29 36  1  0  0  0
 30 31  1  0  0  0
 30 61  1  0  0  0
 31 32  1  0  0  0
 31 33  2  0  0  0
 33 34  1  0  0  0
 33 35  1  0  0  0
 35 36  2  0  0  0
 35 62  1  0  0  0
 36 37  1  0  0  0
 37 38  1  0  0  0
 37 63  1  0  0  0
 38 39  2  0  0  0
M  END
> <chembl_id>
CHEMBL4108584

> <chembl_pref_name>
None

> <i_m_ct_stereo_status>
1

> <s_m_source_file>
sdf/actives_sanitized.sdf

> <i_m_source_file_index>
243

> <i_lp_mmshare_version>
49012

> <i_f3d_flags>
0

> <s_epik_input>
bjFbY0hdW2NIXWMoW2NIXWMxMiljM2MoW2NIXWMoRiljKEYpW2NIXTMpW05IXUMoPU8pW0NASF0oW0NIM10pW0NIMl1bQ0gyXVtDSDJdW0NAQEhdMk40W0NIMl1bQ0gyXUMoPVtDSF1DND1PKWM1YyhCcilbY0hdW2NIXWMoQ2wpYzVG

> <s_epik_cmdline>
J2VwaWtfcHl0aG9uJywgJy1waHQnLCAnMC41JywgJy1waCcsICc3LjUnLCAnLW50JywgJy1tYScsICcyMDAnLCAnLWltYWUnLCAnPGluZmlsZS5tYWU+JywgJy1vbWFlJywgJzxvdXRmaWxlLm1hZT4n

> <r_lp_tautomer_probability>
1

> <r_epik_Ionization_Penalty>
  0.0001

> <r_epik_Ionization_Penalty_Charging>
  0.0000

> <r_epik_Ionization_Penalty_Neutral>
  0.0001

> <r_epik_State_Penalty>
 -0.0000

> <r_epik_Charging_Adjusted_Penalty>
0

> <i_epik_Tot_Q>
0

> <i_epik_Tot_abs_Q>
0

> <s_lp_Force_Field>
OPLS3e

> <r_lp_Energy>
90.179121

> <b_lp_Chiralities_Consistent>
1

> <s_lp_Variant>
sdf/actives_sanitized.sdf:243-1

$$$$
sdf/actives_sanitized.sdf:244
                    3D
 Schrodinger Suite 2020-1.
 72 77  0  0  1  0            999 V2000
   -5.2809    1.5306   -0.4669 C   0  0  0  0  0  0
   -4.1624    0.8737   -1.3013 C   0  0  2  0  0  0
   -2.7769    1.5320   -1.0313 C   0  0  0  0  0  0
   -2.1370    1.1783    0.3377 C   0  0  0  0  0  0
   -0.5868    1.0823    0.3247 C   0  0  0  0  0  0
    0.0090   -0.3076   -0.0723 C   0  0  2  0  0  0
    1.4901   -0.3613    0.0207 N   0  0  0  0  0  0
    2.2986    0.8026   -0.4544 C   0  0  0  0  0  0
    3.7402    0.4174   -0.8832 C   0  0  0  0  0  0
    4.3256   -0.5151    0.1573 C   0  0  0  0  0  0
    3.5121   -1.4203    0.7313 C   0  0  0  0  0  0
    2.0833   -1.4971    0.5170 C   0  0  0  0  0  0
    1.4764   -2.5377    0.7771 O   0  0  0  0  0  0
    5.7902   -0.6403    0.3041 C   0  0  0  0  0  0
    6.4968   -1.4515   -0.5983 C   0  0  0  0  0  0
    5.8365   -2.1050   -1.5855 F   0  0  0  0  0  0
    7.8813   -1.5950   -0.4874 C   0  0  0  0  0  0
    8.7539   -2.5936   -1.5950 Cl  0  0  0  0  0  0
    8.5686   -0.9310    0.5243 C   0  0  0  0  0  0
    7.8761   -0.1237    1.4221 C   0  0  0  0  0  0
    6.4888    0.0412    1.3254 C   0  0  0  0  0  0
    5.8038    0.9037    2.3287 C   0  0  0  0  0  0
    5.8721    0.5960    3.6948 C   0  0  0  0  0  0
    5.2162    1.4189    4.6124 C   0  0  0  0  0  0
    4.5114    2.5181    4.2441 N   0  0  0  0  0  0
    4.4565    2.8164    2.9219 C   0  0  0  0  0  0
    5.0853    2.0444    1.9436 C   0  0  0  0  0  0
   -0.5399   -0.8129   -1.4100 C   0  0  0  0  0  0
   -1.7376   -1.5307   -1.4293 C   0  0  0  0  0  0
   -2.3821   -1.7489   -2.6497 C   0  0  0  0  0  0
   -1.7339   -1.3585   -3.8278 C   0  0  0  0  0  0
   -0.4882   -0.7339   -3.7362 C   0  0  0  0  0  0
    0.1039   -0.4401   -2.5506 N   0  0  0  0  0  0
   -3.7610   -2.2978   -2.6577 C   0  0  0  0  0  0
   -3.9705   -3.6105   -2.2160 C   0  0  0  0  0  0
   -5.2493   -4.1643   -2.1910 C   0  0  0  0  0  0
   -6.3430   -3.4088   -2.6054 C   0  0  0  0  0  0
   -6.1587   -2.0975   -3.0382 C   0  0  0  0  0  0
   -4.8806   -1.5294   -3.0520 C   0  0  0  0  0  0
   -4.7834   -0.2095   -3.5219 N   0  0  0  0  0  0
   -4.5055    0.9100   -2.8148 C   0  0  0  0  0  0
   -4.5250    1.9995   -3.3866 O   0  0  0  0  0  0
   -6.2439    1.0480   -0.6406 H   0  0  0  0  0  0
   -5.3967    2.5890   -0.7054 H   0  0  0  0  0  0
   -5.0716    1.4543    0.6005 H   0  0  0  0  0  0
   -4.1099   -0.1638   -0.9788 H   0  0  0  0  0  0
   -2.0887    1.2551   -1.8290 H   0  0  0  0  0  0
   -2.8536    2.6170   -1.1221 H   0  0  0  0  0  0
   -2.4401    1.9404    1.0571 H   0  0  0  0  0  0
   -2.5459    0.2469    0.7308 H   0  0  0  0  0  0
   -0.1904    1.8775   -0.3073 H   0  0  0  0  0  0
   -0.2358    1.3116    1.3320 H   0  0  0  0  0  0
   -0.3825   -0.9933    0.6820 H   0  0  0  0  0  0
    1.7670    1.3998   -1.1951 H   0  0  0  0  0  0
    2.3985    1.4558    0.4137 H   0  0  0  0  0  0
    3.6808   -0.1100   -1.8364 H   0  0  0  0  0  0
    4.3574    1.3023   -1.0378 H   0  0  0  0  0  0
    3.9431   -2.1630    1.3882 H   0  0  0  0  0  0
    9.6394   -1.0395    0.6167 H   0  0  0  0  0  0
    8.4278    0.3832    2.2009 H   0  0  0  0  0  0
    6.4171   -0.2709    4.0399 H   0  0  0  0  0  0
    5.2492    1.1995    5.6695 H   0  0  0  0  0  0
    3.8961    3.6987    2.6498 H   0  0  0  0  0  0
    5.0188    2.3345    0.9061 H   0  0  0  0  0  0
   -2.2270   -1.7974   -0.5035 H   0  0  0  0  0  0
   -2.1953   -1.5168   -4.7918 H   0  0  0  0  0  0
    0.0361   -0.4200   -4.6267 H   0  0  0  0  0  0
   -3.1325   -4.2113   -1.8924 H   0  0  0  0  0  0
   -5.3913   -5.1799   -1.8520 H   0  0  0  0  0  0
   -7.3338   -3.8387   -2.5906 H   0  0  0  0  0  0
   -7.0173   -1.5230   -3.3564 H   0  0  0  0  0  0
   -5.0644   -0.0751   -4.4823 H   0  0  0  0  0  0
  1  2  1  0  0  0
  1 43  1  0  0  0
  1 44  1  0  0  0
  1 45  1  0  0  0
  2  3  1  0  0  0
  2 41  1  0  0  0
  2 46  1  0  0  0
  3  4  1  0  0  0
  3 47  1  0  0  0
  3 48  1  0  0  0
  4  5  1  0  0  0
  4 49  1  0  0  0
  4 50  1  0  0  0
  5  6  1  0  0  0
  5 51  1  0  0  0
  5 52  1  0  0  0
  6  7  1  0  0  0
  6 28  1  0  0  0
  6 53  1  0  0  0
  7  8  1  0  0  0
  7 12  1  0  0  0
  8  9  1  0  0  0
  8 54  1  0  0  0
  8 55  1  0  0  0
  9 10  1  0  0  0
  9 56  1  0  0  0
  9 57  1  0  0  0
 10 11  2  0  0  0
 10 14  1  0  0  0
 11 12  1  0  0  0
 11 58  1  0  0  0
 12 13  2  0  0  0
 14 15  2  0  0  0
 14 21  1  0  0  0
 15 16  1  0  0  0
 15 17  1  0  0  0
 17 18  1  0  0  0
 17 19  2  0  0  0
 19 20  1  0  0  0
 19 59  1  0  0  0
 20 21  2  0  0  0
 20 60  1  0  0  0
 21 22  1  0  0  0
 22 23  2  0  0  0
 22 27  1  0  0  0
 23 24  1  0  0  0
 23 61  1  0  0  0
 24 25  2  0  0  0
 24 62  1  0  0  0
 25 26  1  0  0  0
 26 27  2  0  0  0
 26 63  1  0  0  0
 27 64  1  0  0  0
 28 29  1  0  0  0
 28 33  2  0  0  0
 29 30  2  0  0  0
 29 65  1  0  0  0
 30 31  1  0  0  0
 30 34  1  0  0  0
 31 32  2  0  0  0
 31 66  1  0  0  0
 32 33  1  0  0  0
 32 67  1  0  0  0
 34 35  2  0  0  0
 34 39  1  0  0  0
 35 36  1  0  0  0
 35 68  1  0  0  0
 36 37  2  0  0  0
 36 69  1  0  0  0
 37 38  1  0  0  0
 37 70  1  0  0  0
 38 39  2  0  0  0
 38 71  1  0  0  0
 39 40  1  0  0  0
 40 41  1  0  0  0
 40 72  1  0  0  0
 41 42  2  0  0  0
M  END
> <chembl_id>
CHEMBL4113703

> <chembl_pref_name>
None

> <i_m_ct_stereo_status>
1

> <s_m_source_file>
sdf/actives_sanitized.sdf

> <i_m_source_file_index>
244

> <i_lp_mmshare_version>
49012

> <i_f3d_flags>
0

> <s_epik_input>
bjFbY0hdW2NIXWMoW2NIXWMxMiljM2MoW2NIXVtjSF1bY0hdW2NIXTMpW05IXUMoPU8pW0NASF0oW0NIM10pW0NIMl1bQ0gyXVtDSDJdW0NAQEhdMk40W0NIMl1bQ0gyXUMoPVtDSF1DND1PKWM1YyhGKWMoQ2wpW2NIXVtjSF1jNS1jNltjSF1bY0hdbltjSF1bY0hdNg==

> <s_epik_cmdline>
J2VwaWtfcHl0aG9uJywgJy1waHQnLCAnMC41JywgJy1waCcsICc3LjUnLCAnLW50JywgJy1tYScsICcyMDAnLCAnLWltYWUnLCAnPGluZmlsZS5tYWU+JywgJy1vbWFlJywgJzxvdXRmaWxlLm1hZT4n

> <r_lp_tautomer_probability>
1

> <r_epik_Ionization_Penalty>
  0.0016

> <r_epik_Ionization_Penalty_Charging>
  0.0000

> <r_epik_Ionization_Penalty_Neutral>
  0.0016

> <r_epik_State_Penalty>
 -0.0000

> <r_epik_Charging_Adjusted_Penalty>
0

> <i_epik_Tot_Q>
0

> <i_epik_Tot_abs_Q>
0

> <s_lp_Force_Field>
OPLS3e

> <r_lp_Energy>
105.439122

> <b_lp_Chiralities_Consistent>
1

> <s_lp_Variant>
sdf/actives_sanitized.sdf:244-1

$$$$
sdf/actives_sanitized.sdf:245
                    3D
 Schrodinger Suite 2020-1.
 72 77  0  0  1  0            999 V2000
   -5.2853    1.5251   -0.4708 C   0  0  0  0  0  0
   -4.1649    0.8708   -1.3048 C   0  0  2  0  0  0
   -2.7806    1.5324   -1.0378 C   0  0  0  0  0  0
   -2.1374    1.1836    0.3308 C   0  0  0  0  0  0
   -0.5873    1.0890    0.3135 C   0  0  0  0  0  0
    0.0081   -0.3037   -0.0750 C   0  0  2  0  0  0
    1.4889   -0.3559    0.0188 N   0  0  0  0  0  0
    2.2955    0.8066   -0.4631 C   0  0  0  0  0  0
    3.7386    0.4225   -0.8872 C   0  0  0  0  0  0
    4.3242   -0.5033    0.1590 C   0  0  0  0  0  0
    3.5121   -1.4069    0.7371 C   0  0  0  0  0  0
    2.0836   -1.4880    0.5217 C   0  0  0  0  0  0
    1.4782   -2.5282    0.7863 O   0  0  0  0  0  0
    5.7889   -0.6235    0.3081 C   0  0  0  0  0  0
    6.5000   -1.4193   -0.6044 C   0  0  0  0  0  0
    5.8439   -2.0616   -1.6019 F   0  0  0  0  0  0
    7.8846   -1.5592   -0.4935 C   0  0  0  0  0  0
    8.7621   -2.5395   -1.6139 Cl  0  0  0  0  0  0
    8.5679   -0.9068    0.5283 C   0  0  0  0  0  0
    7.8708   -0.1153    1.4367 C   0  0  0  0  0  0
    6.4828    0.0459    1.3409 C   0  0  0  0  0  0
    5.7932    0.8908    2.3571 C   0  0  0  0  0  0
    5.0309    2.0114    1.9978 C   0  0  0  0  0  0
    4.3948    2.7729    2.9796 C   0  0  0  0  0  0
    4.5451    2.3944    4.3135 C   0  0  0  0  0  0
    5.2839    1.3228    4.6954 N   0  0  0  0  0  0
    5.8926    0.5958    3.7237 C   0  0  0  0  0  0
   -0.5401   -0.8146   -1.4109 C   0  0  0  0  0  0
   -1.7387   -1.5308   -1.4286 C   0  0  0  0  0  0
   -2.3821   -1.7539   -2.6486 C   0  0  0  0  0  0
   -1.7327   -1.3687   -3.8278 C   0  0  0  0  0  0
   -0.4864   -0.7449   -3.7375 C   0  0  0  0  0  0
    0.1054   -0.4479   -2.5524 N   0  0  0  0  0  0
   -3.7611   -2.3026   -2.6551 C   0  0  0  0  0  0
   -3.9697   -3.6148   -2.2115 C   0  0  0  0  0  0
   -5.2483   -4.1689   -2.1844 C   0  0  0  0  0  0
   -6.3428   -3.4145   -2.5985 C   0  0  0  0  0  0
   -6.1595   -2.1034   -3.0326 C   0  0  0  0  0  0
   -4.8816   -1.5353   -3.0494 C   0  0  0  0  0  0
   -4.7855   -0.2166   -3.5227 N   0  0  0  0  0  0
   -4.5083    0.9046   -2.8181 C   0  0  0  0  0  0
   -4.5281    1.9931   -3.3916 O   0  0  0  0  0  0
   -6.2473    1.0409   -0.6465 H   0  0  0  0  0  0
   -5.4028    2.5835   -0.7085 H   0  0  0  0  0  0
   -5.0777    1.4479    0.5969 H   0  0  0  0  0  0
   -4.1100   -0.1661   -0.9809 H   0  0  0  0  0  0
   -2.0929    1.2542   -1.8357 H   0  0  0  0  0  0
   -2.8595    2.6171   -1.1313 H   0  0  0  0  0  0
   -2.4394    1.9477    1.0485 H   0  0  0  0  0  0
   -2.5452    0.2533    0.7276 H   0  0  0  0  0  0
   -0.1939    1.8791   -0.3266 H   0  0  0  0  0  0
   -0.2318    1.3275    1.3171 H   0  0  0  0  0  0
   -0.3837   -0.9856    0.6828 H   0  0  0  0  0  0
    1.7633    1.3974   -1.2084 H   0  0  0  0  0  0
    2.3924    1.4657    0.4007 H   0  0  0  0  0  0
    3.6823   -0.1098   -1.8377 H   0  0  0  0  0  0
    4.3535    1.3084   -1.0449 H   0  0  0  0  0  0
    3.9438   -2.1445    1.3995 H   0  0  0  0  0  0
    9.6389   -1.0131    0.6206 H   0  0  0  0  0  0
    8.4202    0.3819    2.2235 H   0  0  0  0  0  0
    4.9336    2.2983    0.9618 H   0  0  0  0  0  0
    3.8031    3.6361    2.7125 H   0  0  0  0  0  0
    4.0696    2.9580    5.1028 H   0  0  0  0  0  0
    6.4678   -0.2534    4.0634 H   0  0  0  0  0  0
   -2.2299   -1.7926   -0.5022 H   0  0  0  0  0  0
   -2.1932   -1.5305   -4.7915 H   0  0  0  0  0  0
    0.0389   -0.4341   -4.6283 H   0  0  0  0  0  0
   -3.1315   -4.2155   -1.8883 H   0  0  0  0  0  0
   -5.3895   -5.1844   -1.8448 H   0  0  0  0  0  0
   -7.3330   -3.8453   -2.5830 H   0  0  0  0  0  0
   -7.0184   -1.5291   -3.3501 H   0  0  0  0  0  0
   -5.0685   -0.0855   -4.4828 H   0  0  0  0  0  0
  1  2  1  0  0  0
  1 43  1  0  0  0
  1 44  1  0  0  0
  1 45  1  0  0  0
  2  3  1  0  0  0
  2 41  1  0  0  0
  2 46  1  0  0  0
  3  4  1  0  0  0
  3 47  1  0  0  0
  3 48  1  0  0  0
  4  5  1  0  0  0
  4 49  1  0  0  0
  4 50  1  0  0  0
  5  6  1  0  0  0
  5 51  1  0  0  0
  5 52  1  0  0  0
  6  7  1  0  0  0
  6 28  1  0  0  0
  6 53  1  0  0  0
  7  8  1  0  0  0
  7 12  1  0  0  0
  8  9  1  0  0  0
  8 54  1  0  0  0
  8 55  1  0  0  0
  9 10  1  0  0  0
  9 56  1  0  0  0
  9 57  1  0  0  0
 10 11  2  0  0  0
 10 14  1  0  0  0
 11 12  1  0  0  0
 11 58  1  0  0  0
 12 13  2  0  0  0
 14 15  2  0  0  0
 14 21  1  0  0  0
 15 16  1  0  0  0
 15 17  1  0  0  0
 17 18  1  0  0  0
 17 19  2  0  0  0
 19 20  1  0  0  0
 19 59  1  0  0  0
 20 21  2  0  0  0
 20 60  1  0  0  0
 21 22  1  0  0  0
 22 23  2  0  0  0
 22 27  1  0  0  0
 23 24  1  0  0  0
 23 61  1  0  0  0
 24 25  2  0  0  0
 24 62  1  0  0  0
 25 26  1  0  0  0
 25 63  1  0  0  0
 26 27  2  0  0  0
 27 64  1  0  0  0
 28 29  1  0  0  0
 28 33  2  0  0  0
 29 30  2  0  0  0
 29 65  1  0  0  0
 30 31  1  0  0  0
 30 34  1  0  0  0
 31 32  2  0  0  0
 31 66  1  0  0  0
 32 33  1  0  0  0
 32 67  1  0  0  0
 34 35  2  0  0  0
 34 39  1  0  0  0
 35 36  1  0  0  0
 35 68  1  0  0  0
 36 37  2  0  0  0
 36 69  1  0  0  0
 37 38  1  0  0  0
 37 70  1  0  0  0
 38 39  2  0  0  0
 38 71  1  0  0  0
 39 40  1  0  0  0
 40 41  1  0  0  0
 40 72  1  0  0  0
 41 42  2  0  0  0
M  END
> <chembl_id>
CHEMBL4112496

> <chembl_pref_name>
None

> <i_m_ct_stereo_status>
1

> <s_m_source_file>
sdf/actives_sanitized.sdf

> <i_m_source_file_index>
245

> <i_lp_mmshare_version>
49012

> <i_f3d_flags>
0

> <s_epik_input>
bjFbY0hdW2NIXWMoW2NIXWMxMiljM2MoW2NIXVtjSF1bY0hdW2NIXTMpW05IXUMoPU8pW0NASF0oW0NIM10pW0NIMl1bQ0gyXVtDSDJdW0NAQEhdMk40W0NIMl1bQ0gyXUMoPVtDSF1DND1PKWM1YyhGKWMoQ2wpW2NIXVtjSF1jNS1jNltjSF1bY0hdW2NIXW5bY0hdNg==

> <s_epik_cmdline>
J2VwaWtfcHl0aG9uJywgJy1waHQnLCAnMC41JywgJy1waCcsICc3LjUnLCAnLW50JywgJy1tYScsICcyMDAnLCAnLWltYWUnLCAnPGluZmlsZS5tYWU+JywgJy1vbWFlJywgJzxvdXRmaWxlLm1hZT4n

> <r_lp_tautomer_probability>
1

> <r_epik_Ionization_Penalty>
  0.0009

> <r_epik_Ionization_Penalty_Charging>
  0.0000

> <r_epik_Ionization_Penalty_Neutral>
  0.0009

> <r_epik_State_Penalty>
 -0.0000

> <r_epik_Charging_Adjusted_Penalty>
0

> <i_epik_Tot_Q>
0

> <i_epik_Tot_abs_Q>
0

> <s_lp_Force_Field>
OPLS3e

> <r_lp_Energy>
105.327018

> <b_lp_Chiralities_Consistent>
1

> <s_lp_Variant>
sdf/actives_sanitized.sdf:245-1

$$$$
sdf/actives_sanitized.sdf:246
                    3D
 Schrodinger Suite 2020-1.
 68 73  0  0  1  0            999 V2000
   -5.1538    1.9256   -1.6989 C   0  0  0  0  0  0
   -4.0589    0.9044   -2.0693 C   0  0  2  0  0  0
   -2.6440    1.5541   -2.0915 C   0  0  0  0  0  0
   -2.0462    1.8853   -0.6980 C   0  0  0  0  0  0
   -0.5054    1.7126   -0.6003 C   0  0  0  0  0  0
   -0.0086    0.2828   -0.2120 C   0  0  2  0  0  0
    1.4571    0.1873    0.0233 N   0  0  0  0  0  0
    2.4106    0.9402   -0.8478 C   0  0  0  0  0  0
    3.7928    1.1453   -0.1739 C   0  0  0  0  0  0
    4.2584   -0.1861    0.3792 C   0  0  0  0  0  0
    3.3394   -1.0220    0.8964 C   0  0  0  0  0  0
    1.9090   -0.8001    0.8698 C   0  0  0  0  0  0
    1.1774   -1.4588    1.6117 O   0  0  0  0  0  0
    5.6946   -0.4221    0.6324 C   0  0  0  0  0  0
    6.2675    0.0847    1.8101 C   0  0  0  0  0  0
    5.5057    0.7781    2.6914 F   0  0  0  0  0  0
    7.6214   -0.1200    2.0877 C   0  0  0  0  0  0
    8.3239    0.5026    3.5384 Cl  0  0  0  0  0  0
    8.4163   -0.8319    1.1930 C   0  0  0  0  0  0
    7.8641   -1.3389    0.0203 C   0  0  0  0  0  0
    6.5094   -1.1358   -0.2734 C   0  0  0  0  0  0
    5.9965   -1.6859   -1.4699 N   0  0  0  0  0  0
    5.2748   -1.0873   -2.4771 C   0  0  0  0  0  0
    4.9783   -1.9469   -3.4175 N   0  0  0  0  0  0
    5.5399   -3.1483   -2.9975 N   0  0  0  0  0  0
    6.1788   -2.9774   -1.7834 N   0  0  0  0  0  0
   -0.5529   -0.7822   -1.1691 C   0  0  0  0  0  0
   -1.7935   -1.3658   -0.9066 C   0  0  0  0  0  0
   -2.4171   -2.1190   -1.9042 C   0  0  0  0  0  0
   -1.7131   -2.3755   -3.0873 C   0  0  0  0  0  0
   -0.4325   -1.8384   -3.2392 C   0  0  0  0  0  0
    0.1452   -1.0341   -2.3104 N   0  0  0  0  0  0
   -3.8274   -2.5429   -1.7198 C   0  0  0  0  0  0
   -4.1295   -3.4697   -0.7140 C   0  0  0  0  0  0
   -5.4413   -3.8840   -0.4894 C   0  0  0  0  0  0
   -6.4756   -3.3726   -1.2685 C   0  0  0  0  0  0
   -6.1990   -2.4418   -2.2673 C   0  0  0  0  0  0
   -4.8875   -2.0094   -2.4885 C   0  0  0  0  0  0
   -4.6980   -1.0844   -3.5276 N   0  0  0  0  0  0
   -4.3705    0.2245   -3.4295 C   0  0  0  0  0  0
   -4.3149    0.9059   -4.4525 O   0  0  0  0  0  0
   -6.1370    1.4550   -1.6494 H   0  0  0  0  0  0
   -5.2147    2.7372   -2.4258 H   0  0  0  0  0  0
   -4.9618    2.3721   -0.7227 H   0  0  0  0  0  0
   -4.0697    0.1485   -1.2876 H   0  0  0  0  0  0
   -1.9592    0.8951   -2.6244 H   0  0  0  0  0  0
   -2.6579    2.4601   -2.7002 H   0  0  0  0  0  0
   -2.3048    2.9174   -0.4575 H   0  0  0  0  0  0
   -2.5220    1.2905    0.0824 H   0  0  0  0  0  0
   -0.0635    2.0397   -1.5417 H   0  0  0  0  0  0
   -0.1399    2.4078    0.1570 H   0  0  0  0  0  0
   -0.4827    0.0910    0.7530 H   0  0  0  0  0  0
    2.6122    0.2729   -1.6874 H   0  0  0  0  0  0
    1.9955    1.8397   -1.2966 H   0  0  0  0  0  0
    4.5152    1.5703   -0.8708 H   0  0  0  0  0  0
    3.6767    1.8558    0.6457 H   0  0  0  0  0  0
    3.6787   -1.9219    1.3906 H   0  0  0  0  0  0
    9.4631   -0.9935    1.4057 H   0  0  0  0  0  0
    8.4974   -1.8884   -0.6617 H   0  0  0  0  0  0
    5.0270   -0.0379   -2.4449 H   0  0  0  0  0  0
   -2.3243   -1.1287    0.0043 H   0  0  0  0  0  0
   -2.1572   -2.9607   -3.8796 H   0  0  0  0  0  0
    0.1354   -2.0163   -4.1404 H   0  0  0  0  0  0
   -3.3390   -3.8776   -0.1002 H   0  0  0  0  0  0
   -5.6552   -4.6030    0.2876 H   0  0  0  0  0  0
   -7.4918   -3.6966   -1.0982 H   0  0  0  0  0  0
   -7.0123   -2.0529   -2.8638 H   0  0  0  0  0  0
   -4.9517   -1.4160   -4.4466 H   0  0  0  0  0  0
  1  2  1  0  0  0
  1 42  1  0  0  0
  1 43  1  0  0  0
  1 44  1  0  0  0
  2  3  1  0  0  0
  2 40  1  0  0  0
  2 45  1  0  0  0
  3  4  1  0  0  0
  3 46  1  0  0  0
  3 47  1  0  0  0
  4  5  1  0  0  0
  4 48  1  0  0  0
  4 49  1  0  0  0
  5  6  1  0  0  0
  5 50  1  0  0  0
  5 51  1  0  0  0
  6  7  1  0  0  0
  6 27  1  0  0  0
  6 52  1  0  0  0
  7  8  1  0  0  0
  7 12  1  0  0  0
  8  9  1  0  0  0
  8 53  1  0  0  0
  8 54  1  0  0  0
  9 10  1  0  0  0
  9 55  1  0  0  0
  9 56  1  0  0  0
 10 11  2  0  0  0
 10 14  1  0  0  0
 11 12  1  0  0  0
 11 57  1  0  0  0
 12 13  2  0  0  0
 14 15  2  0  0  0
 14 21  1  0  0  0
 15 16  1  0  0  0
 15 17  1  0  0  0
 17 18  1  0  0  0
 17 19  2  0  0  0
 19 20  1  0  0  0
 19 58  1  0  0  0
 20 21  2  0  0  0
 20 59  1  0  0  0
 21 22  1  0  0  0
 22 23  1  0  0  0
 22 26  1  0  0  0
 23 24  2  0  0  0
 23 60  1  0  0  0
 24 25  1  0  0  0
 25 26  2  0  0  0
 27 28  1  0  0  0
 27 32  2  0  0  0
 28 29  2  0  0  0
 28 61  1  0  0  0
 29 30  1  0  0  0
 29 33  1  0  0  0
 30 31  2  0  0  0
 30 62  1  0  0  0
 31 32  1  0  0  0
 31 63  1  0  0  0
 33 34  2  0  0  0
 33 38  1  0  0  0
 34 35  1  0  0  0
 34 64  1  0  0  0
 35 36  2  0  0  0
 35 65  1  0  0  0
 36 37  1  0  0  0
 36 66  1  0  0  0
 37 38  2  0  0  0
 37 67  1  0  0  0
 38 39  1  0  0  0
 39 40  1  0  0  0
 39 68  1  0  0  0
 40 41  2  0  0  0
M  END
> <chembl_id>
CHEMBL4112773

> <chembl_pref_name>
None

> <i_m_ct_stereo_status>
1

> <s_m_source_file>
sdf/actives_sanitized.sdf

> <i_m_source_file_index>
246

> <i_lp_mmshare_version>
49012

> <i_f3d_flags>
0

> <s_epik_input>
bjFbY0hdW2NIXWMoW2NIXWMxMiljM2MoW2NIXVtjSF1bY0hdW2NIXTMpW05IXUMoPU8pW0NASF0oW0NIM10pW0NIMl1bQ0gyXVtDSDJdW0NAQEhdMk40W0NIMl1bQ0gyXUMoPVtDSF1DND1PKWM1YyhGKWMoQ2wpW2NIXVtjSF1jNS1uNltjSF1ubm42

> <s_epik_cmdline>
J2VwaWtfcHl0aG9uJywgJy1waHQnLCAnMC41JywgJy1waCcsICc3LjUnLCAnLW50JywgJy1tYScsICcyMDAnLCAnLWltYWUnLCAnPGluZmlsZS5tYWU+JywgJy1vbWFlJywgJzxvdXRmaWxlLm1hZT4n

> <r_lp_tautomer_probability>
1

> <r_epik_Ionization_Penalty>
  0.0001

> <r_epik_Ionization_Penalty_Charging>
  0.0000

> <r_epik_Ionization_Penalty_Neutral>
  0.0001

> <r_epik_State_Penalty>
 -0.0000

> <r_epik_Charging_Adjusted_Penalty>
0

> <i_epik_Tot_Q>
0

> <i_epik_Tot_abs_Q>
0

> <s_lp_Force_Field>
OPLS3e

> <r_lp_Energy>
97.849274

> <b_lp_Chiralities_Consistent>
1

> <s_lp_Variant>
sdf/actives_sanitized.sdf:246-1

$$$$
sdf/actives_sanitized.sdf:247
                    3D
 Schrodinger Suite 2020-1.
 69 74  0  0  1  0            999 V2000
   -5.2378    1.8534   -1.4942 C   0  0  0  0  0  0
   -4.0985    0.9196   -1.9520 C   0  0  2  0  0  0
   -2.7127    1.6283   -1.9047 C   0  0  0  0  0  0
   -2.1320    1.8539   -0.4829 C   0  0  0  0  0  0
   -0.5844    1.7455   -0.3929 C   0  0  0  0  0  0
   -0.0200    0.3103   -0.1395 C   0  0  2  0  0  0
    1.4500    0.2604    0.0844 N   0  0  0  0  0  0
    2.3648    1.1357   -0.7101 C   0  0  0  0  0  0
    3.7449    1.3277   -0.0265 C   0  0  0  0  0  0
    4.2723   -0.0336    0.3865 C   0  0  0  0  0  0
    3.3866   -0.9609    0.8005 C   0  0  0  0  0  0
    1.9503   -0.7876    0.8231 C   0  0  0  0  0  0
    1.2564   -1.5418    1.5078 O   0  0  0  0  0  0
    5.7305   -0.2656    0.5169 C   0  0  0  0  0  0
    6.4760    0.6440    1.2791 C   0  0  0  0  0  0
    7.8420    0.4600    1.4875 C   0  0  0  0  0  0
    8.7307    1.5922    2.4400 Cl  0  0  0  0  0  0
    8.4875   -0.6413    0.9322 C   0  0  0  0  0  0
    7.7690   -1.5533    0.1634 C   0  0  0  0  0  0
    6.3962   -1.3736   -0.0578 C   0  0  0  0  0  0
    5.7265   -2.3052   -0.8852 N   0  0  0  0  0  0
    4.8756   -2.0863   -1.9393 C   0  0  0  0  0  0
    4.4611   -3.2193   -2.4436 N   0  0  0  0  0  0
    5.0857   -4.0984   -1.6772 C   0  0  0  0  0  0
    5.8642   -3.6283   -0.7261 N   0  0  0  0  0  0
   -0.5171   -0.6845   -1.1938 C   0  0  0  0  0  0
   -1.7317   -1.3429   -0.9930 C   0  0  0  0  0  0
   -2.3196   -2.0286   -2.0590 C   0  0  0  0  0  0
   -1.6019   -2.1463   -3.2557 C   0  0  0  0  0  0
   -0.3452   -1.5439   -3.3497 C   0  0  0  0  0  0
    0.1942   -0.8021   -2.3486 N   0  0  0  0  0  0
   -3.7098   -2.5300   -1.9227 C   0  0  0  0  0  0
   -3.9717   -3.5571   -1.0071 C   0  0  0  0  0  0
   -5.2636   -4.0496   -0.8302 C   0  0  0  0  0  0
   -6.3179   -3.5182   -1.5682 C   0  0  0  0  0  0
   -6.0818   -2.4885   -2.4763 C   0  0  0  0  0  0
   -4.7911   -1.9773   -2.6471 C   0  0  0  0  0  0
   -4.6420   -0.9514   -3.5941 N   0  0  0  0  0  0
   -4.3769    0.3566   -3.3718 C   0  0  0  0  0  0
   -4.3534    1.1332   -4.3261 O   0  0  0  0  0  0
   -6.2024    1.3438   -1.5123 H   0  0  0  0  0  0
   -5.3210    2.7351   -2.1316 H   0  0  0  0  0  0
   -5.0768    2.1992   -0.4726 H   0  0  0  0  0  0
   -4.0790    0.0935   -1.2449 H   0  0  0  0  0  0
   -1.9989    1.0524   -2.4929 H   0  0  0  0  0  0
   -2.7647    2.5857   -2.4266 H   0  0  0  0  0  0
   -2.4399    2.8456   -0.1485 H   0  0  0  0  0  0
   -2.5799    1.1667    0.2357 H   0  0  0  0  0  0
   -0.1575    2.1819   -1.2960 H   0  0  0  0  0  0
   -0.2530    2.3815    0.4295 H   0  0  0  0  0  0
   -0.4799    0.0073    0.8036 H   0  0  0  0  0  0
    2.5858    0.5650   -1.6138 H   0  0  0  0  0  0
    1.9099    2.0585   -1.0631 H   0  0  0  0  0  0
    4.4398    1.8405   -0.6926 H   0  0  0  0  0  0
    3.6092    1.9514    0.8582 H   0  0  0  0  0  0
    3.7597   -1.9078    1.1658 H   0  0  0  0  0  0
    5.9895    1.4966    1.7312 H   0  0  0  0  0  0
    9.5455   -0.7894    1.0918 H   0  0  0  0  0  0
    8.2895   -2.3950   -0.2711 H   0  0  0  0  0  0
    4.6220   -1.0859   -2.2582 H   0  0  0  0  0  0
    4.9631   -5.1612   -1.8274 H   0  0  0  0  0  0
   -2.2736   -1.2143   -0.0670 H   0  0  0  0  0  0
   -2.0168   -2.6767   -4.1004 H   0  0  0  0  0  0
    0.2334   -1.6172   -4.2586 H   0  0  0  0  0  0
   -3.1647   -3.9823   -0.4275 H   0  0  0  0  0  0
   -5.4465   -4.8444   -0.1222 H   0  0  0  0  0  0
   -7.3185   -3.9029   -1.4356 H   0  0  0  0  0  0
   -6.9106   -2.0849   -3.0406 H   0  0  0  0  0  0
   -4.8784   -1.2066   -4.5419 H   0  0  0  0  0  0
  1  2  1  0  0  0
  1 41  1  0  0  0
  1 42  1  0  0  0
  1 43  1  0  0  0
  2  3  1  0  0  0
  2 39  1  0  0  0
  2 44  1  0  0  0
  3  4  1  0  0  0
  3 45  1  0  0  0
  3 46  1  0  0  0
  4  5  1  0  0  0
  4 47  1  0  0  0
  4 48  1  0  0  0
  5  6  1  0  0  0
  5 49  1  0  0  0
  5 50  1  0  0  0
  6  7  1  0  0  0
  6 26  1  0  0  0
  6 51  1  0  0  0
  7  8  1  0  0  0
  7 12  1  0  0  0
  8  9  1  0  0  0
  8 52  1  0  0  0
  8 53  1  0  0  0
  9 10  1  0  0  0
  9 54  1  0  0  0
  9 55  1  0  0  0
 10 11  2  0  0  0
 10 14  1  0  0  0
 11 12  1  0  0  0
 11 56  1  0  0  0
 12 13  2  0  0  0
 14 15  2  0  0  0
 14 20  1  0  0  0
 15 16  1  0  0  0
 15 57  1  0  0  0
 16 17  1  0  0  0
 16 18  2  0  0  0
 18 19  1  0  0  0
 18 58  1  0  0  0
 19 20  2  0  0  0
 19 59  1  0  0  0
 20 21  1  0  0  0
 21 22  1  0  0  0
 21 25  1  0  0  0
 22 23  2  0  0  0
 22 60  1  0  0  0
 23 24  1  0  0  0
 24 25  2  0  0  0
 24 61  1  0  0  0
 26 27  1  0  0  0
 26 31  2  0  0  0
 27 28  2  0  0  0
 27 62  1  0  0  0
 28 29  1  0  0  0
 28 32  1  0  0  0
 29 30  2  0  0  0
 29 63  1  0  0  0
 30 31  1  0  0  0
 30 64  1  0  0  0
 32 33  2  0  0  0
 32 37  1  0  0  0
 33 34  1  0  0  0
 33 65  1  0  0  0
 34 35  2  0  0  0
 34 66  1  0  0  0
 35 36  1  0  0  0
 35 67  1  0  0  0
 36 37  2  0  0  0
 36 68  1  0  0  0
 37 38  1  0  0  0
 38 39  1  0  0  0
 38 69  1  0  0  0
 39 40  2  0  0  0
M  END
> <chembl_id>
CHEMBL4114271

> <chembl_pref_name>
None

> <i_m_ct_stereo_status>
1

> <s_m_source_file>
sdf/actives_sanitized.sdf

> <i_m_source_file_index>
247

> <i_lp_mmshare_version>
49012

> <i_f3d_flags>
0

> <s_epik_input>
bjFbY0hdW2NIXWMoW2NIXWMxMiljM2MoW2NIXVtjSF1bY0hdW2NIXTMpW05IXUMoPU8pW0NASF0oW0NIM10pW0NIMl1bQ0gyXVtDSDJdW0NAQEhdMk40W0NIMl1bQ0gyXUMoPVtDSF1DND1PKWM1W2NIXWMoQ2wpW2NIXVtjSF1jNS1uNltjSF1uW2NIXW42

> <s_epik_cmdline>
J2VwaWtfcHl0aG9uJywgJy1waHQnLCAnMC41JywgJy1waCcsICc3LjUnLCAnLW50JywgJy1tYScsICcyMDAnLCAnLWltYWUnLCAnPGluZmlsZS5tYWU+JywgJy1vbWFlJywgJzxvdXRmaWxlLm1hZT4n

> <r_lp_tautomer_probability>
1

> <r_epik_Ionization_Penalty>
  0.0001

> <r_epik_Ionization_Penalty_Charging>
  0.0000

> <r_epik_Ionization_Penalty_Neutral>
  0.0001

> <r_epik_State_Penalty>
 -0.0000

> <r_epik_Charging_Adjusted_Penalty>
0

> <i_epik_Tot_Q>
0

> <i_epik_Tot_abs_Q>
0

> <s_lp_Force_Field>
OPLS3e

> <r_lp_Energy>
99.474213

> <b_lp_Chiralities_Consistent>
1

> <s_lp_Variant>
sdf/actives_sanitized.sdf:247-1

$$$$
sdf/actives_sanitized.sdf:248
                    3D
 Schrodinger Suite 2020-1.
 74 78  0  0  1  0            999 V2000
  -10.0848   -6.3511   -0.8544 C   0  0  0  0  0  0
   -9.3483   -5.2802   -1.4296 O   0  0  0  0  0  0
   -8.0208   -5.1648   -1.2224 C   0  0  0  0  0  0
   -7.3530   -5.9472   -0.5426 O   0  0  0  0  0  0
   -7.5707   -4.0298   -1.8903 N   0  0  0  0  0  0
   -6.2677   -3.5139   -1.9955 C   0  0  0  0  0  0
   -5.1139   -4.1743   -1.5501 C   0  0  0  0  0  0
   -3.8619   -3.5842   -1.7108 C   0  0  0  0  0  0
   -3.7239   -2.3322   -2.3195 C   0  0  0  0  0  0
   -4.8886   -1.6576   -2.7469 C   0  0  0  0  0  0
   -4.8646   -0.4030   -3.3773 N   0  0  0  0  0  0
   -4.6012    0.8030   -2.8233 C   0  0  0  0  0  0
   -4.6891    1.8140   -3.5194 O   0  0  0  0  0  0
   -4.1903    0.9618   -1.3348 C   0  0  2  0  0  0
   -5.2982    1.6701   -0.5289 C   0  0  0  0  0  0
   -2.8238    1.6993   -1.2142 C   0  0  0  0  0  0
   -2.1062    1.5356    0.1525 C   0  0  0  0  0  0
   -0.5555    1.4935    0.0707 C   0  0  0  0  0  0
    0.0785    0.0875   -0.1878 C   0  0  2  0  0  0
    1.5636    0.0924   -0.1670 N   0  0  0  0  0  0
    2.3046    1.2314   -0.7880 C   0  0  0  0  0  0
    3.7353    0.8569   -1.2626 C   0  0  0  0  0  0
    4.4126    0.0200   -0.1962 C   0  0  0  0  0  0
    3.6578   -0.8457    0.5067 C   0  0  0  0  0  0
    2.2215   -0.9761    0.3925 C   0  0  0  0  0  0
    1.6639   -2.0041    0.7815 O   0  0  0  0  0  0
    5.8855   -0.0701   -0.1623 C   0  0  0  0  0  0
    6.6263    1.0541    0.2181 C   0  0  0  0  0  0
    8.0190    1.0121    0.2422 C   0  0  0  0  0  0
    8.6878   -0.1532   -0.1264 C   0  0  0  0  0  0
    7.9665   -1.2803   -0.5293 C   0  0  0  0  0  0
    8.7024   -2.5456   -0.9387 C   0  0  0  0  0  0
    6.5662   -1.2360   -0.5501 C   0  0  0  0  0  0
    5.8692   -2.3255   -0.9559 F   0  0  0  0  0  0
   -0.5121   -0.5954   -1.4251 C   0  0  0  0  0  0
   -1.6803   -1.3495   -1.2970 C   0  0  0  0  0  0
   -2.3686   -1.7416   -2.4478 C   0  0  0  0  0  0
   -1.7881   -1.4819   -3.6954 C   0  0  0  0  0  0
   -0.5651   -0.8091   -3.7425 C   0  0  0  0  0  0
    0.0663   -0.3480   -2.6327 N   0  0  0  0  0  0
   -6.1412   -2.2613   -2.6000 C   0  0  0  0  0  0
  -11.1318   -6.2810   -1.1491 H   0  0  0  0  0  0
  -10.0356   -6.3188    0.2350 H   0  0  0  0  0  0
   -9.7016   -7.3158   -1.1901 H   0  0  0  0  0  0
   -8.2801   -3.4952   -2.3700 H   0  0  0  0  0  0
   -5.1533   -5.1468   -1.0866 H   0  0  0  0  0  0
   -2.9866   -4.1132   -1.3617 H   0  0  0  0  0  0
   -5.1932   -0.3968   -4.3319 H   0  0  0  0  0  0
   -4.0781   -0.0264   -0.8944 H   0  0  0  0  0  0
   -6.2429    1.1272   -0.5887 H   0  0  0  0  0  0
   -5.4785    2.6835   -0.8911 H   0  0  0  0  0  0
   -5.0343    1.7399    0.5268 H   0  0  0  0  0  0
   -2.1613    1.3550   -2.0077 H   0  0  0  0  0  0
   -2.9518    2.7620   -1.4280 H   0  0  0  0  0  0
   -2.4062    2.3676    0.7912 H   0  0  0  0  0  0
   -2.4581    0.6449    0.6740 H   0  0  0  0  0  0
   -0.2239    2.2197   -0.6716 H   0  0  0  0  0  0
   -0.1659    1.8563    1.0231 H   0  0  0  0  0  0
   -0.2470   -0.5145    0.6633 H   0  0  0  0  0  0
    1.7141    1.7432   -1.5477 H   0  0  0  0  0  0
    2.4262    1.9626    0.0122 H   0  0  0  0  0  0
    3.6485    0.2612   -2.1725 H   0  0  0  0  0  0
    4.3116    1.7487   -1.5115 H   0  0  0  0  0  0
    4.1491   -1.5266    1.1879 H   0  0  0  0  0  0
    6.1219    1.9665    0.5035 H   0  0  0  0  0  0
    8.5801    1.8841    0.5448 H   0  0  0  0  0  0
    9.7678   -0.1739   -0.1039 H   0  0  0  0  0  0
    8.5591   -2.7391   -2.0023 H   0  0  0  0  0  0
    8.3073   -3.4035   -0.3933 H   0  0  0  0  0  0
    9.7718   -2.4869   -0.7314 H   0  0  0  0  0  0
   -2.1177   -1.5144   -0.3226 H   0  0  0  0  0  0
   -2.2839   -1.7770   -4.6086 H   0  0  0  0  0  0
   -0.0926   -0.5925   -4.6891 H   0  0  0  0  0  0
   -7.0254   -1.7455   -2.9501 H   0  0  0  0  0  0
  1  2  1  0  0  0
  1 42  1  0  0  0
  1 43  1  0  0  0
  1 44  1  0  0  0
  2  3  1  0  0  0
  3  4  2  0  0  0
  3  5  1  0  0  0
  5  6  1  0  0  0
  5 45  1  0  0  0
  6  7  2  0  0  0
  6 41  1  0  0  0
  7  8  1  0  0  0
  7 46  1  0  0  0
  8  9  2  0  0  0
  8 47  1  0  0  0
  9 10  1  0  0  0
  9 37  1  0  0  0
 10 11  1  0  0  0
 10 41  2  0  0  0
 11 12  1  0  0  0
 11 48  1  0  0  0
 12 13  2  0  0  0
 12 14  1  0  0  0
 14 15  1  0  0  0
 14 16  1  0  0  0
 14 49  1  0  0  0
 15 50  1  0  0  0
 15 51  1  0  0  0
 15 52  1  0  0  0
 16 17  1  0  0  0
 16 53  1  0  0  0
 16 54  1  0  0  0
 17 18  1  0  0  0
 17 55  1  0  0  0
 17 56  1  0  0  0
 18 19  1  0  0  0
 18 57  1  0  0  0
 18 58  1  0  0  0
 19 20  1  0  0  0
 19 35  1  0  0  0
 19 59  1  0  0  0
 20 21  1  0  0  0
 20 25  1  0  0  0
 21 22  1  0  0  0
 21 60  1  0  0  0
 21 61  1  0  0  0
 22 23  1  0  0  0
 22 62  1  0  0  0
 22 63  1  0  0  0
 23 24  2  0  0  0
 23 27  1  0  0  0
 24 25  1  0  0  0
 24 64  1  0  0  0
 25 26  2  0  0  0
 27 28  2  0  0  0
 27 33  1  0  0  0
 28 29  1  0  0  0
 28 65  1  0  0  0
 29 30  2  0  0  0
 29 66  1  0  0  0
 30 31  1  0  0  0
 30 67  1  0  0  0
 31 32  1  0  0  0
 31 33  2  0  0  0
 32 68  1  0  0  0
 32 69  1  0  0  0
 32 70  1  0  0  0
 33 34  1  0  0  0
 35 36  1  0  0  0
 35 40  2  0  0  0
 36 37  2  0  0  0
 36 71  1  0  0  0
 37 38  1  0  0  0
 38 39  2  0  0  0
 38 72  1  0  0  0
 39 40  1  0  0  0
 39 73  1  0  0  0
 41 74  1  0  0  0
M  END
> <chembl_id>
CHEMBL4107139

> <chembl_pref_name>
None

> <i_m_ct_stereo_status>
1

> <s_m_source_file>
sdf/actives_sanitized.sdf

> <i_m_source_file_index>
248

> <i_lp_mmshare_version>
49012

> <i_f3d_flags>
0

> <s_epik_input>
W0NIM11PQyg9TylbTkhdYyhbY0hdW2NIXTEpW2NIXWMoYzEyKVtOSF1DKD1PKVtDQEhdKFtDSDNdKVtDSDJdW0NIMl1bQ0gyXVtDQEBIXShjM1tjSF1jMltjSF1bY0hdbjMpTjRbQ0gyXVtDSDJdQyg9W0NIXUM0PU8pYzVbY0hdW2NIXVtjSF1jKFtDSDNdKWM1Rg==

> <s_epik_cmdline>
J2VwaWtfcHl0aG9uJywgJy1waHQnLCAnMC41JywgJy1waCcsICc3LjUnLCAnLW50JywgJy1tYScsICcyMDAnLCAnLWltYWUnLCAnPGluZmlsZS5tYWU+JywgJy1vbWFlJywgJzxvdXRmaWxlLm1hZT4n

> <r_lp_tautomer_probability>
1

> <r_epik_Ionization_Penalty>
  0.0001

> <r_epik_Ionization_Penalty_Charging>
  0.0000

> <r_epik_Ionization_Penalty_Neutral>
  0.0001

> <r_epik_State_Penalty>
 -0.0000

> <r_epik_Charging_Adjusted_Penalty>
0

> <i_epik_Tot_Q>
0

> <i_epik_Tot_abs_Q>
0

> <s_epik_Chemistry_Notes>
This compound has an ester and may undergo hydrolysis at high or low pH.

> <s_lp_Force_Field>
OPLS3e

> <r_lp_Energy>
91.187919

> <b_lp_Chiralities_Consistent>
1

> <s_lp_Variant>
sdf/actives_sanitized.sdf:248-1

$$$$
sdf/actives_sanitized.sdf:249
                    3D
 Schrodinger Suite 2020-1.
 74 78  0  0  1  0            999 V2000
  -10.2504   -6.0970   -0.6575 C   0  0  0  0  0  0
   -9.4672   -5.0842   -1.2748 O   0  0  0  0  0  0
   -8.1355   -5.0208   -1.0716 C   0  0  0  0  0  0
   -7.5038   -5.8048   -0.3602 O   0  0  0  0  0  0
   -7.6346   -3.9372   -1.7874 N   0  0  0  0  0  0
   -6.3112   -3.4789   -1.9063 C   0  0  0  0  0  0
   -5.1914   -4.1383   -1.3795 C   0  0  0  0  0  0
   -3.9164   -3.6045   -1.5551 C   0  0  0  0  0  0
   -3.7209   -2.4108   -2.2577 C   0  0  0  0  0  0
   -4.8507   -1.7371   -2.7711 C   0  0  0  0  0  0
   -4.7678   -0.5405   -3.5016 N   0  0  0  0  0  0
   -4.4744    0.6981   -3.0431 C   0  0  0  0  0  0
   -4.5030    1.6481   -3.8245 O   0  0  0  0  0  0
   -4.1036    0.9697   -1.5601 C   0  0  2  0  0  0
   -5.2103    1.7816   -0.8565 C   0  0  0  0  0  0
   -2.7163    1.6700   -1.4556 C   0  0  0  0  0  0
   -2.0476    1.6015   -0.0564 C   0  0  0  0  0  0
   -0.4978    1.4964   -0.0809 C   0  0  0  0  0  0
    0.0828    0.0484   -0.1862 C   0  0  2  0  0  0
    1.5655   -0.0157   -0.0906 N   0  0  0  0  0  0
    2.3756    1.0490   -0.7425 C   0  0  0  0  0  0
    3.8061    0.5935   -1.0988 C   0  0  0  0  0  0
    4.3939   -0.1692    0.0695 C   0  0  0  0  0  0
    3.5991   -1.0000    0.7901 C   0  0  0  0  0  0
    4.1370   -1.9309    1.8854 C   0  0  0  0  0  0
    2.1470   -1.0492    0.6067 C   0  0  0  0  0  0
    1.4771   -1.9699    1.0862 O   0  0  0  0  0  0
    5.8676   -0.2220    0.1651 C   0  0  0  0  0  0
    6.5485    0.6663    1.0087 C   0  0  0  0  0  0
    5.8654    1.5766    1.7426 F   0  0  0  0  0  0
    7.9392    0.6206    1.1040 C   0  0  0  0  0  0
    8.6616   -0.3092    0.3587 C   0  0  0  0  0  0
    7.9953   -1.1961   -0.4867 C   0  0  0  0  0  0
    8.9057   -2.3426   -1.4044 Cl  0  0  0  0  0  0
    6.6011   -1.1531   -0.5856 C   0  0  0  0  0  0
    5.9595   -2.0173   -1.4088 F   0  0  0  0  0  0
   -0.4837   -0.7121   -1.3879 C   0  0  0  0  0  0
   -1.6796   -1.4177   -1.2451 C   0  0  0  0  0  0
   -2.3439   -1.8725   -2.3866 C   0  0  0  0  0  0
   -1.7170   -1.7219   -3.6297 C   0  0  0  0  0  0
   -0.4711   -1.0926   -3.6841 C   0  0  0  0  0  0
    0.1408   -0.5715   -2.5897 N   0  0  0  0  0  0
   -6.1268   -2.2853   -2.6078 C   0  0  0  0  0  0
  -11.2947   -5.9881   -0.9499 H   0  0  0  0  0  0
  -10.1931   -6.0276    0.4299 H   0  0  0  0  0  0
   -9.9157   -7.0906   -0.9593 H   0  0  0  0  0  0
   -8.3188   -3.3961   -2.2955 H   0  0  0  0  0  0
   -5.2741   -5.0656   -0.8360 H   0  0  0  0  0  0
   -3.0687   -4.1305   -1.1394 H   0  0  0  0  0  0
   -5.0738   -0.6025   -4.4617 H   0  0  0  0  0  0
   -4.0408    0.0193   -1.0347 H   0  0  0  0  0  0
   -6.1736    1.2717   -0.9093 H   0  0  0  0  0  0
   -5.3369    2.7678   -1.3058 H   0  0  0  0  0  0
   -4.9814    1.9276    0.1995 H   0  0  0  0  0  0
   -2.0418    1.2379   -2.1939 H   0  0  0  0  0  0
   -2.8007    2.7141   -1.7624 H   0  0  0  0  0  0
   -2.3350    2.4961    0.4980 H   0  0  0  0  0  0
   -2.4492    0.7720    0.5268 H   0  0  0  0  0  0
   -0.1152    2.1359   -0.8764 H   0  0  0  0  0  0
   -0.1233    1.9319    0.8468 H   0  0  0  0  0  0
   -0.3157   -0.4563    0.6962 H   0  0  0  0  0  0
    1.8503    1.5241   -1.5707 H   0  0  0  0  0  0
    2.4830    1.8294    0.0125 H   0  0  0  0  0  0
    3.7477   -0.0714   -1.9620 H   0  0  0  0  0  0
    4.4239    1.4472   -1.3804 H   0  0  0  0  0  0
    4.0053   -2.9741    1.5950 H   0  0  0  0  0  0
    3.6075   -1.7701    2.8260 H   0  0  0  0  0  0
    5.1962   -1.7863    2.0951 H   0  0  0  0  0  0
    8.4589    1.3062    1.7575 H   0  0  0  0  0  0
    9.7385   -0.3396    0.4387 H   0  0  0  0  0  0
   -2.1534   -1.4953   -0.2768 H   0  0  0  0  0  0
   -2.1944   -2.0659   -4.5357 H   0  0  0  0  0  0
    0.0367   -0.9600   -4.6280 H   0  0  0  0  0  0
   -6.9840   -1.7703   -3.0208 H   0  0  0  0  0  0
  1  2  1  0  0  0
  1 44  1  0  0  0
  1 45  1  0  0  0
  1 46  1  0  0  0
  2  3  1  0  0  0
  3  4  2  0  0  0
  3  5  1  0  0  0
  5  6  1  0  0  0
  5 47  1  0  0  0
  6  7  2  0  0  0
  6 43  1  0  0  0
  7  8  1  0  0  0
  7 48  1  0  0  0
  8  9  2  0  0  0
  8 49  1  0  0  0
  9 10  1  0  0  0
  9 39  1  0  0  0
 10 11  1  0  0  0
 10 43  2  0  0  0
 11 12  1  0  0  0
 11 50  1  0  0  0
 12 13  2  0  0  0
 12 14  1  0  0  0
 14 15  1  0  0  0
 14 16  1  0  0  0
 14 51  1  0  0  0
 15 52  1  0  0  0
 15 53  1  0  0  0
 15 54  1  0  0  0
 16 17  1  0  0  0
 16 55  1  0  0  0
 16 56  1  0  0  0
 17 18  1  0  0  0
 17 57  1  0  0  0
 17 58  1  0  0  0
 18 19  1  0  0  0
 18 59  1  0  0  0
 18 60  1  0  0  0
 19 20  1  0  0  0
 19 37  1  0  0  0
 19 61  1  0  0  0
 20 21  1  0  0  0
 20 26  1  0  0  0
 21 22  1  0  0  0
 21 62  1  0  0  0
 21 63  1  0  0  0
 22 23  1  0  0  0
 22 64  1  0  0  0
 22 65  1  0  0  0
 23 24  2  0  0  0
 23 28  1  0  0  0
 24 25  1  0  0  0
 24 26  1  0  0  0
 25 66  1  0  0  0
 25 67  1  0  0  0
 25 68  1  0  0  0
 26 27  2  0  0  0
 28 29  2  0  0  0
 28 35  1  0  0  0
 29 30  1  0  0  0
 29 31  1  0  0  0
 31 32  2  0  0  0
 31 69  1  0  0  0
 32 33  1  0  0  0
 32 70  1  0  0  0
 33 34  1  0  0  0
 33 35  2  0  0  0
 35 36  1  0  0  0
 37 38  1  0  0  0
 37 42  2  0  0  0
 38 39  2  0  0  0
 38 71  1  0  0  0
 39 40  1  0  0  0
 40 41  2  0  0  0
 40 72  1  0  0  0
 41 42  1  0  0  0
 41 73  1  0  0  0
 43 74  1  0  0  0
M  END
> <chembl_id>
CHEMBL4107822

> <chembl_pref_name>
None

> <i_m_ct_stereo_status>
1

> <s_m_source_file>
sdf/actives_sanitized.sdf

> <i_m_source_file_index>
249

> <i_lp_mmshare_version>
49012

> <i_f3d_flags>
0

> <s_epik_input>
W0NIM11PQyg9TylbTkhdYyhbY0hdW2NIXTEpW2NIXWMoYzEyKVtOSF1DKD1PKVtDQEhdKFtDSDNdKVtDSDJdW0NIMl1bQ0gyXVtDQEBIXShjM1tjSF1jMltjSF1bY0hdbjMpTjRbQ0gyXVtDSDJdQyg9QyhbQ0gzXSlDND1PKWM1YyhGKVtjSF1bY0hdYyhDbCljNUY=

> <s_epik_cmdline>
J2VwaWtfcHl0aG9uJywgJy1waHQnLCAnMC41JywgJy1waCcsICc3LjUnLCAnLW50JywgJy1tYScsICcyMDAnLCAnLWltYWUnLCAnPGluZmlsZS5tYWU+JywgJy1vbWFlJywgJzxvdXRmaWxlLm1hZT4n

> <r_lp_tautomer_probability>
1

> <r_epik_Ionization_Penalty>
  0.0001

> <r_epik_Ionization_Penalty_Charging>
  0.0000

> <r_epik_Ionization_Penalty_Neutral>
  0.0001

> <r_epik_State_Penalty>
 -0.0000

> <r_epik_Charging_Adjusted_Penalty>
0

> <i_epik_Tot_Q>
0

> <i_epik_Tot_abs_Q>
0

> <s_epik_Chemistry_Notes>
This compound has an ester and may undergo hydrolysis at high or low pH.

> <s_lp_Force_Field>
OPLS3e

> <r_lp_Energy>
93.172486

> <b_lp_Chiralities_Consistent>
1

> <s_lp_Variant>
sdf/actives_sanitized.sdf:249-1

$$$$
sdf/actives_sanitized.sdf:250
                    3D
 Schrodinger Suite 2020-1.
 61 65  0  0  1  0            999 V2000
   -4.9938    3.2489   -1.1162 C   0  0  0  0  0  0
   -3.7683    2.3100   -1.0626 C   0  0  2  0  0  0
   -2.8312    2.7242    0.1253 C   0  0  0  0  0  0
   -1.8215    1.6774    0.6724 C   0  0  0  0  0  0
   -0.5154    1.4761   -0.1438 C   0  0  0  0  0  0
    0.0671    0.0197   -0.1330 C   0  0  2  0  0  0
    1.5547    0.0113   -0.0636 N   0  0  0  0  0  0
    2.3404    0.7817   -0.9027 C   0  0  0  0  0  0
    3.6864    0.8166   -0.8962 C   0  0  0  0  0  0
    4.3681   -0.0216    0.0773 C   0  0  0  0  0  0
    3.6106   -0.7943    0.8964 C   0  0  0  0  0  0
    2.1479   -0.8570    0.8392 C   0  0  0  0  0  0
    1.5405   -1.6571    1.5539 O   0  0  0  0  0  0
    5.8374   -0.0166    0.1739 C   0  0  0  0  0  0
    6.4906    0.9289    0.9769 C   0  0  0  0  0  0
    5.7805    1.8480    1.6729 F   0  0  0  0  0  0
    7.8825    0.9341    1.0684 C   0  0  0  0  0  0
    8.6338   -0.0019    0.3605 C   0  0  0  0  0  0
    7.9953   -0.9466   -0.4425 C   0  0  0  0  0  0
    8.9409   -2.1000   -1.3148 Cl  0  0  0  0  0  0
    6.5999   -0.9550   -0.5370 C   0  0  0  0  0  0
    5.9862   -1.8758   -1.3193 F   0  0  0  0  0  0
   -0.5109   -0.8399   -1.2818 C   0  0  0  0  0  0
   -1.8664   -0.7503   -1.5888 C   0  0  0  0  0  0
   -2.3782   -1.3432   -2.7381 C   0  0  0  0  0  0
   -1.5240   -2.1445   -3.5038 C   0  0  0  0  0  0
   -0.1876   -2.2638   -3.1082 C   0  0  0  0  0  0
    0.3275   -1.6128   -2.0303 N   0  0  0  0  0  0
   -3.7875   -1.0443   -3.1108 C   0  0  0  0  0  0
   -4.7299   -2.0794   -3.2063 C   0  0  0  0  0  0
   -4.3588   -3.3664   -3.0084 F   0  0  0  0  0  0
   -6.0678   -1.7983   -3.4831 C   0  0  0  0  0  0
   -6.4848   -0.4829   -3.6715 C   0  0  0  0  0  0
   -5.5621    0.5574   -3.5968 C   0  0  0  0  0  0
   -4.2191    0.2879   -3.3137 C   0  0  0  0  0  0
   -3.2987    1.3497   -3.3715 N   0  0  0  0  0  0
   -3.0671    2.3100   -2.4474 C   0  0  0  0  0  0
   -2.2800    3.2173   -2.7139 O   0  0  0  0  0  0
   -5.6886    2.9703   -1.9088 H   0  0  0  0  0  0
   -4.7008    4.2856   -1.2908 H   0  0  0  0  0  0
   -5.5550    3.2192   -0.1816 H   0  0  0  0  0  0
   -4.1554    1.3136   -0.8504 H   0  0  0  0  0  0
   -2.3105    3.6569   -0.0989 H   0  0  0  0  0  0
   -3.4741    2.9737    0.9711 H   0  0  0  0  0  0
   -1.5231    1.9954    1.6728 H   0  0  0  0  0  0
   -2.3401    0.7381    0.8574 H   0  0  0  0  0  0
   -0.6504    1.7944   -1.1760 H   0  0  0  0  0  0
    0.2182    2.1792    0.2548 H   0  0  0  0  0  0
   -0.3336   -0.4452    0.7694 H   0  0  0  0  0  0
    1.7538    1.3458   -1.6137 H   0  0  0  0  0  0
    4.2344    1.4310   -1.5957 H   0  0  0  0  0  0
    4.1006   -1.4188    1.6301 H   0  0  0  0  0  0
    8.3802    1.6647    1.6890 H   0  0  0  0  0  0
    9.7114    0.0078    0.4364 H   0  0  0  0  0  0
   -2.5324   -0.1642   -0.9888 H   0  0  0  0  0  0
   -1.8783   -2.6408   -4.3956 H   0  0  0  0  0  0
    0.5028   -2.8665   -3.6794 H   0  0  0  0  0  0
   -6.7857   -2.6029   -3.5477 H   0  0  0  0  0  0
   -7.5210   -0.2711   -3.8905 H   0  0  0  0  0  0
   -5.8911    1.5695   -3.7833 H   0  0  0  0  0  0
   -2.7275    1.3756   -4.2037 H   0  0  0  0  0  0
  1  2  1  0  0  0
  1 39  1  0  0  0
  1 40  1  0  0  0
  1 41  1  0  0  0
  2  3  1  0  0  0
  2 37  1  0  0  0
  2 42  1  0  0  0
  3  4  1  0  0  0
  3 43  1  0  0  0
  3 44  1  0  0  0
  4  5  1  0  0  0
  4 45  1  0  0  0
  4 46  1  0  0  0
  5  6  1  0  0  0
  5 47  1  0  0  0
  5 48  1  0  0  0
  6  7  1  0  0  0
  6 23  1  0  0  0
  6 49  1  0  0  0
  7  8  1  0  0  0
  7 12  1  0  0  0
  8  9  2  0  0  0
  8 50  1  0  0  0
  9 10  1  0  0  0
  9 51  1  0  0  0
 10 11  2  0  0  0
 10 14  1  0  0  0
 11 12  1  0  0  0
 11 52  1  0  0  0
 12 13  2  0  0  0
 14 15  2  0  0  0
 14 21  1  0  0  0
 15 16  1  0  0  0
 15 17  1  0  0  0
 17 18  2  0  0  0
 17 53  1  0  0  0
 18 19  1  0  0  0
 18 54  1  0  0  0
 19 20  1  0  0  0
 19 21  2  0  0  0
 21 22  1  0  0  0
 23 24  1  0  0  0
 23 28  2  0  0  0
 24 25  2  0  0  0
 24 55  1  0  0  0
 25 26  1  0  0  0
 25 29  1  0  0  0
 26 27  2  0  0  0
 26 56  1  0  0  0
 27 28  1  0  0  0
 27 57  1  0  0  0
 29 30  2  0  0  0
 29 35  1  0  0  0
 30 31  1  0  0  0
 30 32  1  0  0  0
 32 33  2  0  0  0
 32 58  1  0  0  0
 33 34  1  0  0  0
 33 59  1  0  0  0
 34 35  2  0  0  0
 34 60  1  0  0  0
 35 36  1  0  0  0
 36 37  1  0  0  0
 36 61  1  0  0  0
 37 38  2  0  0  0
M  END
> <chembl_id>
CHEMBL4109395

> <chembl_pref_name>
None

> <i_m_ct_stereo_status>
1

> <s_m_source_file>
sdf/actives_sanitized.sdf

> <i_m_source_file_index>
250

> <i_lp_mmshare_version>
49012

> <i_f3d_flags>
0

> <s_epik_input>
bjFbY0hdW2NIXWMoW2NIXWMxMiljM2MoW2NIXVtjSF1bY0hdYzNGKVtOSF1DKD1PKVtDQEhdKFtDSDNdKVtDSDJdW0NIMl1bQ0gyXVtDQEBIXTJuNFtjSF1bY0hdYyhbY0hdYzQ9TyktYzVjKEYpW2NIXVtjSF1jKENsKWM1Rg==

> <s_epik_cmdline>
J2VwaWtfcHl0aG9uJywgJy1waHQnLCAnMC41JywgJy1waCcsICc3LjUnLCAnLW50JywgJy1tYScsICcyMDAnLCAnLWltYWUnLCAnPGluZmlsZS5tYWU+JywgJy1vbWFlJywgJzxvdXRmaWxlLm1hZT4n

> <r_lp_tautomer_probability>
1

> <r_epik_Ionization_Penalty>
  0.0073

> <r_epik_Ionization_Penalty_Charging>
  0.0000

> <r_epik_Ionization_Penalty_Neutral>
  0.0073

> <r_epik_State_Penalty>
 -0.0000

> <r_epik_Charging_Adjusted_Penalty>
3.64357097057384e-07

> <i_epik_Tot_Q>
0

> <i_epik_Tot_abs_Q>
0

> <s_lp_Force_Field>
OPLS3e

> <r_lp_Energy>
82.788222

> <b_lp_Chiralities_Consistent>
1

> <s_lp_Variant>
sdf/actives_sanitized.sdf:250-1

$$$$
sdf/actives_sanitized.sdf:251
                    3D
 Schrodinger Suite 2020-1.
 63 67  0  0  1  0            999 V2000
   -5.0528    3.0890   -0.7403 C   0  0  0  0  0  0
   -3.8119    2.1708   -0.8064 C   0  0  2  0  0  0
   -2.8966    2.4199    0.4433 C   0  0  0  0  0  0
   -1.8812    1.3160    0.8490 C   0  0  0  0  0  0
   -0.5574    1.2562    0.0391 C   0  0  0  0  0  0
    0.0460   -0.1763   -0.1586 C   0  0  2  0  0  0
    1.5277   -0.1577   -0.0786 N   0  0  0  0  0  0
    2.2712    0.7880   -0.9625 C   0  0  0  0  0  0
    3.7172    0.3134   -1.2677 C   0  0  0  0  0  0
    4.3642   -0.1372    0.0261 C   0  0  0  0  0  0
    3.6015   -0.7507    0.9503 C   0  0  0  0  0  0
    2.1712   -0.9455    0.8435 C   0  0  0  0  0  0
    1.6119   -1.7955    1.5385 O   0  0  0  0  0  0
    5.8330   -0.1635    0.1422 C   0  0  0  0  0  0
    6.5245    0.9105    0.7251 C   0  0  0  0  0  0
    5.5996    2.4415    1.3919 Br  0  0  0  0  0  0
    7.9158    0.8763    0.8252 C   0  0  0  0  0  0
    8.6281   -0.2211    0.3468 C   0  0  0  0  0  0
    7.9518   -1.2918   -0.2358 C   0  0  0  0  0  0
    8.8498   -2.6448   -0.8264 Cl  0  0  0  0  0  0
    6.5577   -1.2642   -0.3394 C   0  0  0  0  0  0
    5.9079   -2.3077   -0.9101 F   0  0  0  0  0  0
   -0.4999   -0.8648   -1.4308 C   0  0  0  0  0  0
   -1.8505   -0.7453   -1.7486 C   0  0  0  0  0  0
   -2.3352   -1.1749   -2.9794 C   0  0  0  0  0  0
   -1.4572   -1.8505   -3.8344 C   0  0  0  0  0  0
   -0.1266   -2.0116   -3.4341 C   0  0  0  0  0  0
    0.3613   -1.5160   -2.2649 N   0  0  0  0  0  0
   -3.7439   -0.8464   -3.3300 C   0  0  0  0  0  0
   -4.6646   -1.8716   -3.5962 C   0  0  0  0  0  0
   -4.2678   -3.1667   -3.5873 F   0  0  0  0  0  0
   -6.0046   -1.5744   -3.8509 C   0  0  0  0  0  0
   -6.8851   -2.5709   -4.0992 F   0  0  0  0  0  0
   -6.4425   -0.2522   -3.8470 C   0  0  0  0  0  0
   -5.5414    0.7805   -3.6006 C   0  0  0  0  0  0
   -4.1978    0.4939   -3.3385 C   0  0  0  0  0  0
   -3.2966    1.5676   -3.2243 N   0  0  0  0  0  0
   -3.0926    2.3842   -2.1653 C   0  0  0  0  0  0
   -2.3161    3.3311   -2.2833 O   0  0  0  0  0  0
   -5.7332    2.9186   -1.5749 H   0  0  0  0  0  0
   -4.7756    4.1444   -0.7571 H   0  0  0  0  0  0
   -5.6248    2.9145    0.1716 H   0  0  0  0  0  0
   -4.1853    1.1486   -0.7487 H   0  0  0  0  0  0
   -2.3839    3.3802    0.3632 H   0  0  0  0  0  0
   -3.5538    2.5393    1.3064 H   0  0  0  0  0  0
   -1.6056    1.4844    1.8913 H   0  0  0  0  0  0
   -2.3875    0.3527    0.8818 H   0  0  0  0  0  0
   -0.6760    1.7261   -0.9357 H   0  0  0  0  0  0
    0.1584    1.8981    0.5554 H   0  0  0  0  0  0
   -0.3488   -0.7844    0.6568 H   0  0  0  0  0  0
    1.6919    1.0794   -1.8392 H   0  0  0  0  0  0
    2.3831    1.7017   -0.3766 H   0  0  0  0  0  0
    3.6664   -0.5318   -1.9557 H   0  0  0  0  0  0
    4.2950    1.0995   -1.7551 H   0  0  0  0  0  0
    4.0806   -1.1635    1.8272 H   0  0  0  0  0  0
    8.4459    1.7037    1.2735 H   0  0  0  0  0  0
    9.7052   -0.2375    0.4283 H   0  0  0  0  0  0
   -2.5346   -0.2587   -1.0838 H   0  0  0  0  0  0
   -1.7897   -2.2202   -4.7934 H   0  0  0  0  0  0
    0.5808   -2.5208   -4.0717 H   0  0  0  0  0  0
   -7.4789   -0.0259   -4.0507 H   0  0  0  0  0  0
   -5.8874    1.8033   -3.6383 H   0  0  0  0  0  0
   -2.7156    1.7259   -4.0348 H   0  0  0  0  0  0
  1  2  1  0  0  0
  1 40  1  0  0  0
  1 41  1  0  0  0
  1 42  1  0  0  0
  2  3  1  0  0  0
  2 38  1  0  0  0
  2 43  1  0  0  0
  3  4  1  0  0  0
  3 44  1  0  0  0
  3 45  1  0  0  0
  4  5  1  0  0  0
  4 46  1  0  0  0
  4 47  1  0  0  0
  5  6  1  0  0  0
  5 48  1  0  0  0
  5 49  1  0  0  0
  6  7  1  0  0  0
  6 23  1  0  0  0
  6 50  1  0  0  0
  7  8  1  0  0  0
  7 12  1  0  0  0
  8  9  1  0  0  0
  8 51  1  0  0  0
  8 52  1  0  0  0
  9 10  1  0  0  0
  9 53  1  0  0  0
  9 54  1  0  0  0
 10 11  2  0  0  0
 10 14  1  0  0  0
 11 12  1  0  0  0
 11 55  1  0  0  0
 12 13  2  0  0  0
 14 15  2  0  0  0
 14 21  1  0  0  0
 15 16  1  0  0  0
 15 17  1  0  0  0
 17 18  2  0  0  0
 17 56  1  0  0  0
 18 19  1  0  0  0
 18 57  1  0  0  0
 19 20  1  0  0  0
 19 21  2  0  0  0
 21 22  1  0  0  0
 23 24  1  0  0  0
 23 28  2  0  0  0
 24 25  2  0  0  0
 24 58  1  0  0  0
 25 26  1  0  0  0
 25 29  1  0  0  0
 26 27  2  0  0  0
 26 59  1  0  0  0
 27 28  1  0  0  0
 27 60  1  0  0  0
 29 30  2  0  0  0
 29 36  1  0  0  0
 30 31  1  0  0  0
 30 32  1  0  0  0
 32 33  1  0  0  0
 32 34  2  0  0  0
 34 35  1  0  0  0
 34 61  1  0  0  0
 35 36  2  0  0  0
 35 62  1  0  0  0
 36 37  1  0  0  0
 37 38  1  0  0  0
 37 63  1  0  0  0
 38 39  2  0  0  0
M  END
> <chembl_id>
CHEMBL4107383

> <chembl_pref_name>
None

> <i_m_ct_stereo_status>
1

> <s_m_source_file>
sdf/actives_sanitized.sdf

> <i_m_source_file_index>
251

> <i_lp_mmshare_version>
49012

> <i_f3d_flags>
0

> <s_epik_input>
bjFbY0hdW2NIXWMoW2NIXWMxMiljM2MoW2NIXVtjSF1jKEYpYzNGKVtOSF1DKD1PKVtDQEhdKFtDSDNdKVtDSDJdW0NIMl1bQ0gyXVtDQEBIXTJONFtDSDJdW0NIMl1DKD1bQ0hdQzQ9TyljNWMoQnIpW2NIXVtjSF1jKENsKWM1Rg==

> <s_epik_cmdline>
J2VwaWtfcHl0aG9uJywgJy1waHQnLCAnMC41JywgJy1waCcsICc3LjUnLCAnLW50JywgJy1tYScsICcyMDAnLCAnLWltYWUnLCAnPGluZmlsZS5tYWU+JywgJy1vbWFlJywgJzxvdXRmaWxlLm1hZT4n

> <r_lp_tautomer_probability>
1

> <r_epik_Ionization_Penalty>
  0.0001

> <r_epik_Ionization_Penalty_Charging>
  0.0000

> <r_epik_Ionization_Penalty_Neutral>
  0.0001

> <r_epik_State_Penalty>
 -0.0000

> <r_epik_Charging_Adjusted_Penalty>
0

> <i_epik_Tot_Q>
0

> <i_epik_Tot_abs_Q>
0

> <s_lp_Force_Field>
OPLS3e

> <r_lp_Energy>
89.214514

> <b_lp_Chiralities_Consistent>
1

> <s_lp_Variant>
sdf/actives_sanitized.sdf:251-1

$$$$
sdf/actives_sanitized.sdf:252
                    3D
 Schrodinger Suite 2020-1.
 73 78  0  0  1  0            999 V2000
   -5.2855    1.4916   -0.4145 C   0  0  0  0  0  0
   -4.1672    0.8545   -1.2647 C   0  0  2  0  0  0
   -2.7821    1.5079   -0.9835 C   0  0  0  0  0  0
   -2.1390    1.1255    0.3760 C   0  0  0  0  0  0
   -0.5889    1.0329    0.3565 C   0  0  0  0  0  0
    0.0084   -0.3488   -0.0669 C   0  0  2  0  0  0
    1.4896   -0.3997    0.0234 N   0  0  0  0  0  0
    2.2931    0.7766   -0.4298 C   0  0  0  0  0  0
    3.7369    0.4065   -0.8642 C   0  0  0  0  0  0
    4.3255   -0.5422    0.1595 C   0  0  0  0  0  0
    3.5159   -1.4625    0.7145 C   0  0  0  0  0  0
    2.0877   -1.5424    0.4971 C   0  0  0  0  0  0
    1.4855   -2.5908    0.7359 O   0  0  0  0  0  0
    5.7905   -0.6621    0.3073 C   0  0  0  0  0  0
    6.5031   -1.4549   -0.6065 C   0  0  0  0  0  0
    5.8483   -2.0958   -1.6056 F   0  0  0  0  0  0
    7.8880   -1.5932   -0.4947 C   0  0  0  0  0  0
    8.7683   -2.5684   -1.6172 Cl  0  0  0  0  0  0
    8.5697   -0.9428    0.5295 C   0  0  0  0  0  0
    7.8710   -0.1536    1.4387 C   0  0  0  0  0  0
    6.4833    0.0064    1.3411 C   0  0  0  0  0  0
    5.7902    0.8485    2.3570 C   0  0  0  0  0  0
    5.8436    0.4959    3.7105 C   0  0  0  0  0  0
    5.1932    1.2691    4.6686 C   0  0  0  0  0  0
    4.4894    2.4044    4.2758 C   0  0  0  0  0  0
    4.4354    2.7739    2.9346 C   0  0  0  0  0  0
    5.0879    1.9990    1.9795 C   0  0  0  0  0  0
   -0.5406   -0.8269   -1.4147 C   0  0  0  0  0  0
   -1.7389   -1.5433   -1.4492 C   0  0  0  0  0  0
   -2.3837   -1.7349   -2.6739 C   0  0  0  0  0  0
   -1.7354   -1.3196   -3.8436 C   0  0  0  0  0  0
   -0.4891   -0.6984   -3.7387 C   0  0  0  0  0  0
    0.1035   -0.4309   -2.5470 N   0  0  0  0  0  0
   -3.7622   -2.2844   -2.6940 C   0  0  0  0  0  0
   -3.9697   -3.6077   -2.2845 C   0  0  0  0  0  0
   -5.2475   -4.1640   -2.2735 C   0  0  0  0  0  0
   -6.3425   -3.4002   -2.6688 C   0  0  0  0  0  0
   -6.1603   -2.0782   -3.0686 C   0  0  0  0  0  0
   -4.8831   -1.5084   -3.0693 C   0  0  0  0  0  0
   -4.7884   -0.1780   -3.5088 N   0  0  0  0  0  0
   -4.5116    0.9253   -2.7766 C   0  0  0  0  0  0
   -4.5324    2.0275   -3.3231 O   0  0  0  0  0  0
   -6.2483    1.0129   -0.5993 H   0  0  0  0  0  0
   -5.4016    2.5552   -0.6287 H   0  0  0  0  0  0
   -5.0763    1.3909    0.6508 H   0  0  0  0  0  0
   -4.1136   -0.1900   -0.9658 H   0  0  0  0  0  0
   -2.0951    1.2485   -1.7882 H   0  0  0  0  0  0
   -2.8600    2.5946   -1.0510 H   0  0  0  0  0  0
   -2.4420    1.8707    1.1129 H   0  0  0  0  0  0
   -2.5453    0.1847    0.7486 H   0  0  0  0  0  0
   -0.1967    1.8390   -0.2642 H   0  0  0  0  0  0
   -0.2335    1.2467    1.3656 H   0  0  0  0  0  0
   -0.3807   -1.0503    0.6739 H   0  0  0  0  0  0
    1.7590    1.3847   -1.1597 H   0  0  0  0  0  0
    2.3890    1.4143    0.4501 H   0  0  0  0  0  0
    3.6807   -0.1039   -1.8267 H   0  0  0  0  0  0
    4.3492    1.2975   -1.0025 H   0  0  0  0  0  0
    3.9498   -2.2150    1.3583 H   0  0  0  0  0  0
    9.6405   -1.0488    0.6234 H   0  0  0  0  0  0
    8.4180    0.3427    2.2278 H   0  0  0  0  0  0
    6.3846   -0.3864    4.0214 H   0  0  0  0  0  0
    5.2335    0.9888    5.7110 H   0  0  0  0  0  0
    3.9839    3.0049    5.0179 H   0  0  0  0  0  0
    3.8925    3.6588    2.6369 H   0  0  0  0  0  0
    5.0506    2.3000    0.9437 H   0  0  0  0  0  0
   -2.2289   -1.8295   -0.5295 H   0  0  0  0  0  0
   -2.1968   -1.4572   -4.8108 H   0  0  0  0  0  0
    0.0356   -0.3654   -4.6218 H   0  0  0  0  0  0
   -3.1308   -4.2154   -1.9761 H   0  0  0  0  0  0
   -5.3876   -5.1882   -1.9608 H   0  0  0  0  0  0
   -7.3324   -3.8321   -2.6654 H   0  0  0  0  0  0
   -7.0195   -1.4968   -3.3721 H   0  0  0  0  0  0
   -5.0716   -0.0223   -4.4652 H   0  0  0  0  0  0
  1  2  1  0  0  0
  1 43  1  0  0  0
  1 44  1  0  0  0
  1 45  1  0  0  0
  2  3  1  0  0  0
  2 41  1  0  0  0
  2 46  1  0  0  0
  3  4  1  0  0  0
  3 47  1  0  0  0
  3 48  1  0  0  0
  4  5  1  0  0  0
  4 49  1  0  0  0
  4 50  1  0  0  0
  5  6  1  0  0  0
  5 51  1  0  0  0
  5 52  1  0  0  0
  6  7  1  0  0  0
  6 28  1  0  0  0
  6 53  1  0  0  0
  7  8  1  0  0  0
  7 12  1  0  0  0
  8  9  1  0  0  0
  8 54  1  0  0  0
  8 55  1  0  0  0
  9 10  1  0  0  0
  9 56  1  0  0  0
  9 57  1  0  0  0
 10 11  2  0  0  0
 10 14  1  0  0  0
 11 12  1  0  0  0
 11 58  1  0  0  0
 12 13  2  0  0  0
 14 15  2  0  0  0
 14 21  1  0  0  0
 15 16  1  0  0  0
 15 17  1  0  0  0
 17 18  1  0  0  0
 17 19  2  0  0  0
 19 20  1  0  0  0
 19 59  1  0  0  0
 20 21  2  0  0  0
 20 60  1  0  0  0
 21 22  1  0  0  0
 22 23  2  0  0  0
 22 27  1  0  0  0
 23 24  1  0  0  0
 23 61  1  0  0  0
 24 25  2  0  0  0
 24 62  1  0  0  0
 25 26  1  0  0  0
 25 63  1  0  0  0
 26 27  2  0  0  0
 26 64  1  0  0  0
 27 65  1  0  0  0
 28 29  1  0  0  0
 28 33  2  0  0  0
 29 30  2  0  0  0
 29 66  1  0  0  0
 30 31  1  0  0  0
 30 34  1  0  0  0
 31 32  2  0  0  0
 31 67  1  0  0  0
 32 33  1  0  0  0
 32 68  1  0  0  0
 34 35  2  0  0  0
 34 39  1  0  0  0
 35 36  1  0  0  0
 35 69  1  0  0  0
 36 37  2  0  0  0
 36 70  1  0  0  0
 37 38  1  0  0  0
 37 71  1  0  0  0
 38 39  2  0  0  0
 38 72  1  0  0  0
 39 40  1  0  0  0
 40 41  1  0  0  0
 40 73  1  0  0  0
 41 42  2  0  0  0
M  END
> <chembl_id>
CHEMBL4113963

> <chembl_pref_name>
None

> <i_m_ct_stereo_status>
1

> <s_m_source_file>
sdf/actives_sanitized.sdf

> <i_m_source_file_index>
252

> <i_lp_mmshare_version>
49012

> <i_f3d_flags>
0

> <s_epik_input>
bjFbY0hdW2NIXWMoW2NIXWMxMiljM2MoW2NIXVtjSF1bY0hdW2NIXTMpW05IXUMoPU8pW0NASF0oW0NIM10pW0NIMl1bQ0gyXVtDSDJdW0NAQEhdMk40W0NIMl1bQ0gyXUMoPVtDSF1DND1PKWM1YyhGKWMoQ2wpW2NIXVtjSF1jNS1jNltjSF1bY0hdW2NIXVtjSF1bY0hdNg==

> <s_epik_cmdline>
J2VwaWtfcHl0aG9uJywgJy1waHQnLCAnMC41JywgJy1waCcsICc3LjUnLCAnLW50JywgJy1tYScsICcyMDAnLCAnLWltYWUnLCAnPGluZmlsZS5tYWU+JywgJy1vbWFlJywgJzxvdXRmaWxlLm1hZT4n

> <r_lp_tautomer_probability>
1

> <r_epik_Ionization_Penalty>
  0.0001

> <r_epik_Ionization_Penalty_Charging>
  0.0000

> <r_epik_Ionization_Penalty_Neutral>
  0.0001

> <r_epik_State_Penalty>
 -0.0000

> <r_epik_Charging_Adjusted_Penalty>
0

> <i_epik_Tot_Q>
0

> <i_epik_Tot_abs_Q>
0

> <s_lp_Force_Field>
OPLS3e

> <r_lp_Energy>
103.625681

> <b_lp_Chiralities_Consistent>
1

> <s_lp_Variant>
sdf/actives_sanitized.sdf:252-1

$$$$
sdf/actives_sanitized.sdf:253
                    3D
 Schrodinger Suite 2020-1.
 66 70  0  0  1  0            999 V2000
   -5.1123    2.8942   -0.5170 C   0  0  0  0  0  0
   -3.8612    1.9954   -0.6321 C   0  0  2  0  0  0
   -2.9953    2.1105    0.6718 C   0  0  0  0  0  0
   -1.9849    0.9739    0.9936 C   0  0  0  0  0  0
   -0.6332    1.0032    0.2279 C   0  0  0  0  0  0
   -0.0105   -0.3997   -0.0903 C   0  0  2  0  0  0
    1.4678   -0.3748    0.0273 N   0  0  0  0  0  0
    2.2203    0.6373   -0.7706 C   0  0  0  0  0  0
    3.6735    0.1887   -1.0787 C   0  0  0  0  0  0
    4.3017   -0.3294    0.2006 C   0  0  0  0  0  0
    3.5246   -1.0180    1.0594 C   0  0  0  0  0  0
    2.0987   -1.2173    0.9090 C   0  0  0  0  0  0
    1.5334   -2.1169    1.5328 O   0  0  0  0  0  0
    5.7735   -0.3659    0.3380 C   0  0  0  0  0  0
    6.4511   -1.5622    0.0467 C   0  0  0  0  0  0
    5.7555   -2.6665   -0.3199 F   0  0  0  0  0  0
    7.8433   -1.6275    0.1239 C   0  0  0  0  0  0
    8.6755   -3.1004   -0.2284 Cl  0  0  0  0  0  0
    8.5715   -0.4985    0.4841 C   0  0  0  0  0  0
    7.9130    0.6946    0.7660 C   0  0  0  0  0  0
    6.5156    0.7852    0.6895 C   0  0  0  0  0  0
    5.8346    2.1124    1.0648 C   0  0  0  0  0  0
    6.6624    2.9478    1.6963 F   0  0  0  0  0  0
    5.3983    2.7168   -0.0394 F   0  0  0  0  0  0
    4.7954    1.9087    1.8758 F   0  0  0  0  0  0
   -0.5145   -0.9727   -1.4360 C   0  0  0  0  0  0
   -1.8455   -0.7922   -1.8028 C   0  0  0  0  0  0
   -2.2856   -1.1126   -3.0820 C   0  0  0  0  0  0
   -1.3869   -1.7444   -3.9484 C   0  0  0  0  0  0
   -0.0791   -1.9704   -3.5059 C   0  0  0  0  0  0
    0.3678   -1.5799   -2.2815 N   0  0  0  0  0  0
   -3.6712   -0.7307   -3.4619 C   0  0  0  0  0  0
   -4.5690   -1.7172   -3.8866 C   0  0  0  0  0  0
   -5.8960   -1.3997   -4.1740 C   0  0  0  0  0  0
   -6.3432   -0.0864   -4.0471 C   0  0  0  0  0  0
   -5.4617    0.9146   -3.6443 C   0  0  0  0  0  0
   -4.1303    0.6029   -3.3476 C   0  0  0  0  0  0
   -3.2413    1.6585   -3.0774 N   0  0  0  0  0  0
   -3.0912    2.3589   -1.9299 C   0  0  0  0  0  0
   -2.3216    3.3187   -1.9137 O   0  0  0  0  0  0
   -5.7610    2.8043   -1.3887 H   0  0  0  0  0  0
   -4.8455    3.9478   -0.4170 H   0  0  0  0  0  0
   -5.7143    2.6241    0.3512 H   0  0  0  0  0  0
   -4.2292    0.9718   -0.6998 H   0  0  0  0  0  0
   -2.4897    3.0768    0.7172 H   0  0  0  0  0  0
   -3.6854    2.1305    1.5169 H   0  0  0  0  0  0
   -1.7462    1.0321    2.0568 H   0  0  0  0  0  0
   -2.4849    0.0104    0.9060 H   0  0  0  0  0  0
   -0.7223    1.5676   -0.6987 H   0  0  0  0  0  0
    0.0594    1.5940    0.8300 H   0  0  0  0  0  0
   -0.4186   -1.0850    0.6540 H   0  0  0  0  0  0
    1.6562    0.9851   -1.6366 H   0  0  0  0  0  0
    2.3143    1.5085   -0.1204 H   0  0  0  0  0  0
    3.6350   -0.6206   -1.8095 H   0  0  0  0  0  0
    4.2509    0.9991   -1.5225 H   0  0  0  0  0  0
    3.9894   -1.4894    1.9144 H   0  0  0  0  0  0
    9.6491   -0.5439    0.5463 H   0  0  0  0  0  0
    8.5070    1.5526    1.0447 H   0  0  0  0  0  0
   -2.5470   -0.3424   -1.1317 H   0  0  0  0  0  0
   -1.6856   -2.0299   -4.9466 H   0  0  0  0  0  0
    0.6438   -2.4474   -4.1510 H   0  0  0  0  0  0
   -4.2425   -2.7435   -3.9754 H   0  0  0  0  0  0
   -6.5791   -2.1733   -4.4922 H   0  0  0  0  0  0
   -7.3698    0.1587   -4.2764 H   0  0  0  0  0  0
   -5.8120    1.9352   -3.5881 H   0  0  0  0  0  0
   -2.6292    1.9071   -3.8409 H   0  0  0  0  0  0
  1  2  1  0  0  0
  1 41  1  0  0  0
  1 42  1  0  0  0
  1 43  1  0  0  0
  2  3  1  0  0  0
  2 39  1  0  0  0
  2 44  1  0  0  0
  3  4  1  0  0  0
  3 45  1  0  0  0
  3 46  1  0  0  0
  4  5  1  0  0  0
  4 47  1  0  0  0
  4 48  1  0  0  0
  5  6  1  0  0  0
  5 49  1  0  0  0
  5 50  1  0  0  0
  6  7  1  0  0  0
  6 26  1  0  0  0
  6 51  1  0  0  0
  7  8  1  0  0  0
  7 12  1  0  0  0
  8  9  1  0  0  0
  8 52  1  0  0  0
  8 53  1  0  0  0
  9 10  1  0  0  0
  9 54  1  0  0  0
  9 55  1  0  0  0
 10 11  2  0  0  0
 10 14  1  0  0  0
 11 12  1  0  0  0
 11 56  1  0  0  0
 12 13  2  0  0  0
 14 15  2  0  0  0
 14 21  1  0  0  0
 15 16  1  0  0  0
 15 17  1  0  0  0
 17 18  1  0  0  0
 17 19  2  0  0  0
 19 20  1  0  0  0
 19 57  1  0  0  0
 20 21  2  0  0  0
 20 58  1  0  0  0
 21 22  1  0  0  0
 22 23  1  0  0  0
 22 24  1  0  0  0
 22 25  1  0  0  0
 26 27  1  0  0  0
 26 31  2  0  0  0
 27 28  2  0  0  0
 27 59  1  0  0  0
 28 29  1  0  0  0
 28 32  1  0  0  0
 29 30  2  0  0  0
 29 60  1  0  0  0
 30 31  1  0  0  0
 30 61  1  0  0  0
 32 33  2  0  0  0
 32 37  1  0  0  0
 33 34  1  0  0  0
 33 62  1  0  0  0
 34 35  2  0  0  0
 34 63  1  0  0  0
 35 36  1  0  0  0
 35 64  1  0  0  0
 36 37  2  0  0  0
 36 65  1  0  0  0
 37 38  1  0  0  0
 38 39  1  0  0  0
 38 66  1  0  0  0
 39 40  2  0  0  0
M  END
> <chembl_id>
CHEMBL4115178

> <chembl_pref_name>
None

> <i_m_ct_stereo_status>
1

> <s_m_source_file>
sdf/actives_sanitized.sdf

> <i_m_source_file_index>
253

> <i_lp_mmshare_version>
49012

> <i_f3d_flags>
0

> <s_epik_input>
bjFbY0hdW2NIXWMoW2NIXWMxMiljM2MoW2NIXVtjSF1bY0hdW2NIXTMpW05IXUMoPU8pW0NASF0oW0NIM10pW0NIMl1bQ0gyXVtDSDJdW0NAQEhdMk40W0NIMl1bQ0gyXUMoPVtDSF1DND1PKWM1YyhGKWMoQ2wpW2NIXVtjSF1jNUMoRikoRilG

> <s_epik_cmdline>
J2VwaWtfcHl0aG9uJywgJy1waHQnLCAnMC41JywgJy1waCcsICc3LjUnLCAnLW50JywgJy1tYScsICcyMDAnLCAnLWltYWUnLCAnPGluZmlsZS5tYWU+JywgJy1vbWFlJywgJzxvdXRmaWxlLm1hZT4n

> <r_lp_tautomer_probability>
1

> <r_epik_Ionization_Penalty>
  0.0001

> <r_epik_Ionization_Penalty_Charging>
  0.0000

> <r_epik_Ionization_Penalty_Neutral>
  0.0001

> <r_epik_State_Penalty>
 -0.0000

> <r_epik_Charging_Adjusted_Penalty>
0

> <i_epik_Tot_Q>
0

> <i_epik_Tot_abs_Q>
0

> <s_lp_Force_Field>
OPLS3e

> <r_lp_Energy>
91.178255

> <b_lp_Chiralities_Consistent>
1

> <s_lp_Variant>
sdf/actives_sanitized.sdf:253-1

$$$$
sdf/actives_sanitized.sdf:254
                    3D
 Schrodinger Suite 2020-1.
 77 81  0  0  1  0            999 V2000
  -11.0259   -0.1796   -5.1746 C   0  0  0  0  0  0
   -9.7184    0.3177   -4.9238 O   0  0  0  0  0  0
   -8.7065   -0.5211   -4.6234 C   0  0  0  0  0  0
   -8.8185   -1.7467   -4.5488 O   0  0  0  0  0  0
   -7.5593    0.2361   -4.4066 N   0  0  0  0  0  0
   -6.2585   -0.1910   -4.0915 C   0  0  0  0  0  0
   -5.8258   -1.5234   -4.1525 C   0  0  0  0  0  0
   -4.5117   -1.8509   -3.8240 C   0  0  0  0  0  0
   -3.5993   -0.8700   -3.4206 C   0  0  0  0  0  0
   -4.0356    0.4750   -3.3667 C   0  0  0  0  0  0
   -3.1441    1.5315   -3.1084 N   0  0  0  0  0  0
   -3.0048    2.2455   -1.9669 C   0  0  0  0  0  0
   -2.2233    3.1956   -1.9477 O   0  0  0  0  0  0
   -3.8130    1.9145   -0.6820 C   0  0  2  0  0  0
   -5.0504    2.8368   -0.6128 C   0  0  0  0  0  0
   -2.9826    2.0306    0.6445 C   0  0  0  0  0  0
   -1.9898    0.8882    0.9997 C   0  0  0  0  0  0
   -0.6167    0.9189    0.2749 C   0  0  0  0  0  0
    0.0343   -0.4783   -0.0116 C   0  0  2  0  0  0
    1.5118   -0.3938    0.0786 N   0  0  0  0  0  0
    2.2089    0.6130   -0.7745 C   0  0  0  0  0  0
    3.6887    0.2435   -1.0589 C   0  0  0  0  0  0
    4.3434   -0.2098    0.2322 C   0  0  0  0  0  0
    3.6045   -0.9059    1.1165 C   0  0  0  0  0  0
    2.1872   -1.1695    0.9884 C   0  0  0  0  0  0
    1.6663   -2.0638    1.6564 O   0  0  0  0  0  0
    5.8179   -0.1918    0.3587 C   0  0  0  0  0  0
    6.5356   -1.2384   -0.2466 C   0  0  0  0  0  0
    5.8772   -2.2140   -0.9204 F   0  0  0  0  0  0
    7.9275   -1.2927   -0.1607 C   0  0  0  0  0  0
    8.8054   -2.5802   -0.9077 Cl  0  0  0  0  0  0
    8.6182   -0.3071    0.5357 C   0  0  0  0  0  0
    7.9230    0.7354    1.1400 C   0  0  0  0  0  0
    6.5258    0.8271    1.0453 C   0  0  0  0  0  0
    5.8703    1.9630    1.7779 C   0  0  0  0  0  0
    6.3133    2.4434    2.8217 O   0  0  0  0  0  0
    4.7495    2.7197    1.0664 C   0  0  0  0  0  0
   -0.4510   -1.1184   -1.3358 C   0  0  0  0  0  0
    0.3758   -1.8929   -2.1647 C   0  0  0  0  0  0
   -0.0918   -2.3646   -3.3949 C   0  0  0  0  0  0
   -1.3836   -2.0509   -3.8256 C   0  0  0  0  0  0
   -2.2243   -1.2794   -3.0176 C   0  0  0  0  0  0
   -1.7512   -0.8759   -1.7748 C   0  0  0  0  0  0
   -5.3500    0.8011   -3.7180 C   0  0  0  0  0  0
  -11.6997    0.6471   -5.3990 H   0  0  0  0  0  0
  -11.4164   -0.7093   -4.3044 H   0  0  0  0  0  0
  -11.0295   -0.8619   -6.0262 H   0  0  0  0  0  0
   -7.6758    1.2365   -4.4736 H   0  0  0  0  0  0
   -6.4811   -2.3234   -4.4577 H   0  0  0  0  0  0
   -4.2065   -2.8865   -3.8695 H   0  0  0  0  0  0
   -2.5560    1.7970   -3.8850 H   0  0  0  0  0  0
   -4.1974    0.8965   -0.7436 H   0  0  0  0  0  0
   -5.6815    2.7399   -1.4969 H   0  0  0  0  0  0
   -4.7675    3.8875   -0.5286 H   0  0  0  0  0  0
   -5.6757    2.5958    0.2476 H   0  0  0  0  0  0
   -2.4702    2.9930    0.6960 H   0  0  0  0  0  0
   -3.6955    2.0611    1.4705 H   0  0  0  0  0  0
   -1.7844    0.9437    2.0701 H   0  0  0  0  0  0
   -2.4886   -0.0744    0.8930 H   0  0  0  0  0  0
   -0.6805    1.4730   -0.6596 H   0  0  0  0  0  0
    0.0498    1.5221    0.8940 H   0  0  0  0  0  0
   -0.3361   -1.1544    0.7603 H   0  0  0  0  0  0
    1.6282    0.8801   -1.6581 H   0  0  0  0  0  0
    2.2431    1.5228   -0.1745 H   0  0  0  0  0  0
    3.7041   -0.5825   -1.7714 H   0  0  0  0  0  0
    4.2246    1.0746   -1.5176 H   0  0  0  0  0  0
    4.0974   -1.3341    1.9785 H   0  0  0  0  0  0
    9.6951   -0.3489    0.6124 H   0  0  0  0  0  0
    8.4921    1.4803    1.6794 H   0  0  0  0  0  0
    4.9125    2.7212   -0.0110 H   0  0  0  0  0  0
    4.7273    3.7612    1.3888 H   0  0  0  0  0  0
    3.7823    2.2676    1.2824 H   0  0  0  0  0  0
    1.3887   -2.1266   -1.8717 H   0  0  0  0  0  0
    0.5560   -2.9568   -4.0241 H   0  0  0  0  0  0
   -1.7236   -2.3972   -4.7908 H   0  0  0  0  0  0
   -2.4323   -0.3289   -1.1605 H   0  0  0  0  0  0
   -5.6630    1.8362   -3.7062 H   0  0  0  0  0  0
  1  2  1  0  0  0
  1 45  1  0  0  0
  1 46  1  0  0  0
  1 47  1  0  0  0
  2  3  1  0  0  0
  3  4  2  0  0  0
  3  5  1  0  0  0
  5  6  1  0  0  0
  5 48  1  0  0  0
  6  7  2  0  0  0
  6 44  1  0  0  0
  7  8  1  0  0  0
  7 49  1  0  0  0
  8  9  2  0  0  0
  8 50  1  0  0  0
  9 10  1  0  0  0
  9 42  1  0  0  0
 10 11  1  0  0  0
 10 44  2  0  0  0
 11 12  1  0  0  0
 11 51  1  0  0  0
 12 13  2  0  0  0
 12 14  1  0  0  0
 14 15  1  0  0  0
 14 16  1  0  0  0
 14 52  1  0  0  0
 15 53  1  0  0  0
 15 54  1  0  0  0
 15 55  1  0  0  0
 16 17  1  0  0  0
 16 56  1  0  0  0
 16 57  1  0  0  0
 17 18  1  0  0  0
 17 58  1  0  0  0
 17 59  1  0  0  0
 18 19  1  0  0  0
 18 60  1  0  0  0
 18 61  1  0  0  0
 19 20  1  0  0  0
 19 38  1  0  0  0
 19 62  1  0  0  0
 20 21  1  0  0  0
 20 25  1  0  0  0
 21 22  1  0  0  0
 21 63  1  0  0  0
 21 64  1  0  0  0
 22 23  1  0  0  0
 22 65  1  0  0  0
 22 66  1  0  0  0
 23 24  2  0  0  0
 23 27  1  0  0  0
 24 25  1  0  0  0
 24 67  1  0  0  0
 25 26  2  0  0  0
 27 28  2  0  0  0
 27 34  1  0  0  0
 28 29  1  0  0  0
 28 30  1  0  0  0
 30 31  1  0  0  0
 30 32  2  0  0  0
 32 33  1  0  0  0
 32 68  1  0  0  0
 33 34  2  0  0  0
 33 69  1  0  0  0
 34 35  1  0  0  0
 35 36  2  0  0  0
 35 37  1  0  0  0
 37 70  1  0  0  0
 37 71  1  0  0  0
 37 72  1  0  0  0
 38 39  1  0  0  0
 38 43  2  0  0  0
 39 40  2  0  0  0
 39 73  1  0  0  0
 40 41  1  0  0  0
 40 74  1  0  0  0
 41 42  2  0  0  0
 41 75  1  0  0  0
 42 43  1  0  0  0
 43 76  1  0  0  0
 44 77  1  0  0  0
M  END
> <chembl_id>
CHEMBL4107795

> <chembl_pref_name>
None

> <i_m_ct_stereo_status>
1

> <s_m_source_file>
sdf/actives_sanitized.sdf

> <i_m_source_file_index>
254

> <i_lp_mmshare_version>
49012

> <i_f3d_flags>
0

> <s_epik_input>
W0NIM11PQyg9TylbTkhdYyhbY0hdW2NIXTEpW2NIXWMoYzEyKVtOSF1DKD1PKVtDQEhdKFtDSDNdKVtDSDJdW0NIMl1bQ0gyXVtDQEBIXShjM1tjSF1bY0hdW2NIXWMyW2NIXTMpTjRbQ0gyXVtDSDJdQyg9W0NIXUM0PU8pYzVjKEYpYyhDbClbY0hdW2NIXWM1Qyg9TylbQ0gzXQ==

> <s_epik_cmdline>
J2VwaWtfcHl0aG9uJywgJy1waHQnLCAnMC41JywgJy1waCcsICc3LjUnLCAnLW50JywgJy1tYScsICcyMDAnLCAnLWltYWUnLCAnPGluZmlsZS5tYWU+JywgJy1vbWFlJywgJzxvdXRmaWxlLm1hZT4n

> <r_lp_tautomer_probability>
1

> <r_epik_Ionization_Penalty>
  0.0000

> <r_epik_Ionization_Penalty_Charging>
  0.0000

> <r_epik_Ionization_Penalty_Neutral>
  0.0000

> <r_epik_State_Penalty>
 -0.0000

> <r_epik_Charging_Adjusted_Penalty>
0

> <i_epik_Tot_Q>
0

> <i_epik_Tot_abs_Q>
0

> <s_epik_Chemistry_Notes>
This compound has an ester and may undergo hydrolysis at high or low pH.

> <s_lp_Force_Field>
OPLS3e

> <r_lp_Energy>
100.491412

> <b_lp_Chiralities_Consistent>
1

> <s_lp_Variant>
sdf/actives_sanitized.sdf:254-1

$$$$
sdf/actives_sanitized.sdf:255
                    3D
 Schrodinger Suite 2020-1.
 68 73  0  0  1  0            999 V2000
   -5.1287    1.9165   -1.7932 C   0  0  0  0  0  0
   -4.0446    0.8706   -2.1239 C   0  0  2  0  0  0
   -2.6229    1.5042   -2.1761 C   0  0  0  0  0  0
   -2.0215    1.8932   -0.7990 C   0  0  0  0  0  0
   -0.4837    1.7019   -0.6871 C   0  0  0  0  0  0
   -0.0137    0.2835   -0.2305 C   0  0  2  0  0  0
    1.4469    0.1743    0.0277 N   0  0  0  0  0  0
    2.4239    0.8776   -0.8584 C   0  0  0  0  0  0
    3.7971    1.0950   -0.1702 C   0  0  0  0  0  0
    4.2385   -0.2151    0.4515 C   0  0  0  0  0  0
    3.2993   -1.0190    0.9838 C   0  0  0  0  0  0
    1.8721   -0.7853    0.9186 C   0  0  0  0  0  0
    1.1194   -1.4081    1.6703 O   0  0  0  0  0  0
    5.6665   -0.4432    0.7596 C   0  0  0  0  0  0
    6.1604   -0.0356    2.0100 C   0  0  0  0  0  0
    5.3323    0.5512    2.9087 F   0  0  0  0  0  0
    7.5036   -0.2281    2.3422 C   0  0  0  0  0  0
    8.1077    0.2724    3.8818 Cl  0  0  0  0  0  0
    8.3679   -0.8279    1.4304 C   0  0  0  0  0  0
    7.8965   -1.2320    0.1849 C   0  0  0  0  0  0
    6.5549   -1.0371   -0.1659 C   0  0  0  0  0  0
    6.1422   -1.4878   -1.4406 N   0  0  0  0  0  0
    6.3958   -2.6967   -2.0470 C   0  0  0  0  0  0
    5.8822   -2.7362   -3.2499 N   0  0  0  0  0  0
    5.2860   -1.4921   -3.4279 N   0  0  0  0  0  0
    5.4637   -0.7137   -2.2999 N   0  0  0  0  0  0
   -0.5652   -0.8130   -1.1468 C   0  0  0  0  0  0
   -1.8110   -1.3759   -0.8646 C   0  0  0  0  0  0
   -2.4404   -2.1595   -1.8349 C   0  0  0  0  0  0
   -1.7383   -2.4639   -3.0076 C   0  0  0  0  0  0
   -0.4532   -1.9431   -3.1778 C   0  0  0  0  0  0
    0.1310   -1.1108   -2.2779 N   0  0  0  0  0  0
   -3.8544   -2.5640   -1.6354 C   0  0  0  0  0  0
   -4.1640   -3.4505   -0.5959 C   0  0  0  0  0  0
   -5.4796   -3.8419   -0.3531 C   0  0  0  0  0  0
   -5.7548   -4.7027    0.6526 F   0  0  0  0  0  0
   -6.5104   -3.3469   -1.1472 C   0  0  0  0  0  0
   -6.2264   -2.4571   -2.1809 C   0  0  0  0  0  0
   -4.9105   -2.0487   -2.4221 C   0  0  0  0  0  0
   -4.7133   -1.1678   -3.4977 N   0  0  0  0  0  0
   -4.3677    0.1394   -3.4543 C   0  0  0  0  0  0
   -4.3060    0.7773   -4.5047 O   0  0  0  0  0  0
   -6.1178    1.4599   -1.7328 H   0  0  0  0  0  0
   -5.1762    2.7037   -2.5472 H   0  0  0  0  0  0
   -4.9361    2.3927   -0.8313 H   0  0  0  0  0  0
   -4.0615    0.1473   -1.3120 H   0  0  0  0  0  0
   -1.9449    0.8157   -2.6795 H   0  0  0  0  0  0
   -2.6281    2.3820   -2.8250 H   0  0  0  0  0  0
   -2.2645    2.9398   -0.6098 H   0  0  0  0  0  0
   -2.5077    1.3438    0.0079 H   0  0  0  0  0  0
   -0.0318    1.9778   -1.6401 H   0  0  0  0  0  0
   -0.1100    2.4253    0.0392 H   0  0  0  0  0  0
   -0.5012    0.1430    0.7366 H   0  0  0  0  0  0
    2.6322    0.1721   -1.6646 H   0  0  0  0  0  0
    2.0276    1.7607   -1.3540 H   0  0  0  0  0  0
    4.5360    1.4785   -0.8742 H   0  0  0  0  0  0
    3.6797    1.8445    0.6137 H   0  0  0  0  0  0
    3.6191   -1.8967    1.5284 H   0  0  0  0  0  0
    9.4065   -0.9795    1.6859 H   0  0  0  0  0  0
    8.5851   -1.6925   -0.5094 H   0  0  0  0  0  0
    6.9496   -3.4720   -1.5382 H   0  0  0  0  0  0
   -2.3406   -1.1007    0.0362 H   0  0  0  0  0  0
   -2.1864   -3.0731   -3.7792 H   0  0  0  0  0  0
    0.1135   -2.1577   -4.0717 H   0  0  0  0  0  0
   -3.3757   -3.8441    0.0300 H   0  0  0  0  0  0
   -7.5298   -3.6521   -0.9619 H   0  0  0  0  0  0
   -7.0370   -2.0813   -2.7890 H   0  0  0  0  0  0
   -4.9751   -1.5320   -4.4023 H   0  0  0  0  0  0
  1  2  1  0  0  0
  1 43  1  0  0  0
  1 44  1  0  0  0
  1 45  1  0  0  0
  2  3  1  0  0  0
  2 41  1  0  0  0
  2 46  1  0  0  0
  3  4  1  0  0  0
  3 47  1  0  0  0
  3 48  1  0  0  0
  4  5  1  0  0  0
  4 49  1  0  0  0
  4 50  1  0  0  0
  5  6  1  0  0  0
  5 51  1  0  0  0
  5 52  1  0  0  0
  6  7  1  0  0  0
  6 27  1  0  0  0
  6 53  1  0  0  0
  7  8  1  0  0  0
  7 12  1  0  0  0
  8  9  1  0  0  0
  8 54  1  0  0  0
  8 55  1  0  0  0
  9 10  1  0  0  0
  9 56  1  0  0  0
  9 57  1  0  0  0
 10 11  2  0  0  0
 10 14  1  0  0  0
 11 12  1  0  0  0
 11 58  1  0  0  0
 12 13  2  0  0  0
 14 15  2  0  0  0
 14 21  1  0  0  0
 15 16  1  0  0  0
 15 17  1  0  0  0
 17 18  1  0  0  0
 17 19  2  0  0  0
 19 20  1  0  0  0
 19 59  1  0  0  0
 20 21  2  0  0  0
 20 60  1  0  0  0
 21 22  1  0  0  0
 22 23  1  0  0  0
 22 26  1  0  0  0
 23 24  2  0  0  0
 23 61  1  0  0  0
 24 25  1  0  0  0
 25 26  2  0  0  0
 27 28  1  0  0  0
 27 32  2  0  0  0
 28 29  2  0  0  0
 28 62  1  0  0  0
 29 30  1  0  0  0
 29 33  1  0  0  0
 30 31  2  0  0  0
 30 63  1  0  0  0
 31 32  1  0  0  0
 31 64  1  0  0  0
 33 34  2  0  0  0
 33 39  1  0  0  0
 34 35  1  0  0  0
 34 65  1  0  0  0
 35 36  1  0  0  0
 35 37  2  0  0  0
 37 38  1  0  0  0
 37 66  1  0  0  0
 38 39  2  0  0  0
 38 67  1  0  0  0
 39 40  1  0  0  0
 40 41  1  0  0  0
 40 68  1  0  0  0
 41 42  2  0  0  0
M  END
> <chembl_id>
CHEMBL4113941

> <chembl_pref_name>
None

> <i_m_ct_stereo_status>
1

> <s_m_source_file>
sdf/actives_sanitized.sdf

> <i_m_source_file_index>
255

> <i_lp_mmshare_version>
49012

> <i_f3d_flags>
0

> <s_epik_input>
bjFbY0hdW2NIXWMoW2NIXWMxMiljM2MoW2NIXVtjSF1jKEYpW2NIXTMpW05IXUMoPU8pW0NASF0oW0NIM10pW0NIMl1bQ0gyXVtDSDJdW0NAQEhdMk40W0NIMl1bQ0gyXUMoPVtDSF1DND1PKWM1YyhGKWMoQ2wpW2NIXVtjSF1jNS1uNltjSF1ubm42

> <s_epik_cmdline>
J2VwaWtfcHl0aG9uJywgJy1waHQnLCAnMC41JywgJy1waCcsICc3LjUnLCAnLW50JywgJy1tYScsICcyMDAnLCAnLWltYWUnLCAnPGluZmlsZS5tYWU+JywgJy1vbWFlJywgJzxvdXRmaWxlLm1hZT4n

> <r_lp_tautomer_probability>
1

> <r_epik_Ionization_Penalty>
  0.0001

> <r_epik_Ionization_Penalty_Charging>
  0.0000

> <r_epik_Ionization_Penalty_Neutral>
  0.0001

> <r_epik_State_Penalty>
 -0.0000

> <r_epik_Charging_Adjusted_Penalty>
0

> <i_epik_Tot_Q>
0

> <i_epik_Tot_abs_Q>
0

> <s_lp_Force_Field>
OPLS3e

> <r_lp_Energy>
97.13062

> <b_lp_Chiralities_Consistent>
1

> <s_lp_Variant>
sdf/actives_sanitized.sdf:255-1

$$$$
sdf/actives_sanitized.sdf:256
                    3D
 Schrodinger Suite 2020-1.
 66 70  0  0  1  0            999 V2000
   -5.2876    2.8428   -0.6742 C   0  0  0  0  0  0
   -3.9770    2.0322   -0.7773 C   0  0  2  0  0  0
   -3.0623    2.3304    0.4634 C   0  0  0  0  0  0
   -1.9520    1.3061    0.8336 C   0  0  0  0  0  0
   -0.6422    1.3715    0.0007 C   0  0  0  0  0  0
    0.0837   -0.0012   -0.2363 C   0  0  2  0  0  0
    1.5632    0.0931   -0.1374 N   0  0  0  0  0  0
    2.2425   -0.9372    0.6969 C   0  0  0  0  0  0
    3.6415   -0.4745    1.1830 C   0  0  0  0  0  0
    4.4045    0.0931    0.0011 C   0  0  0  0  0  0
    3.7203    0.7484   -0.9557 C   0  0  0  0  0  0
    2.2814    0.9030   -0.9888 C   0  0  0  0  0  0
    1.7734    1.7497   -1.7250 O   0  0  0  0  0  0
    5.8814    0.1438    0.0189 C   0  0  0  0  0  0
    6.5881    1.0082    0.8793 C   0  0  0  0  0  0
    5.8713    1.9837    1.8051 C   0  0  0  0  0  0
    7.9865    1.0027    0.8719 C   0  0  0  0  0  0
    8.6874    0.1418    0.0317 C   0  0  0  0  0  0
    7.9964   -0.7232   -0.8131 C   0  0  0  0  0  0
    8.8810   -1.7909   -1.8444 Cl  0  0  0  0  0  0
    6.5991   -0.7243   -0.8195 C   0  0  0  0  0  0
    5.9376   -1.5758   -1.6411 F   0  0  0  0  0  0
   -0.4443   -0.7541   -1.4821 C   0  0  0  0  0  0
   -1.7962   -0.6805   -1.8041 C   0  0  0  0  0  0
   -2.2782   -1.1838   -3.0065 C   0  0  0  0  0  0
   -1.3862   -1.8801   -3.8299 C   0  0  0  0  0  0
   -0.0505   -1.9905   -3.4269 C   0  0  0  0  0  0
    0.4283   -1.4312   -2.2824 N   0  0  0  0  0  0
   -3.7037   -0.9320   -3.3513 C   0  0  0  0  0  0
   -4.5450   -2.0143   -3.6367 C   0  0  0  0  0  0
   -5.9027   -1.8191   -3.8872 C   0  0  0  0  0  0
   -6.4397   -0.5341   -3.8625 C   0  0  0  0  0  0
   -5.6179    0.5596   -3.5983 C   0  0  0  0  0  0
   -4.2556    0.3718   -3.3391 C   0  0  0  0  0  0
   -3.4396    1.5105   -3.2109 N   0  0  0  0  0  0
   -3.2995    2.3292   -2.1427 C   0  0  0  0  0  0
   -2.6143    3.3447   -2.2552 O   0  0  0  0  0  0
   -5.9639    2.6321   -1.5031 H   0  0  0  0  0  0
   -5.0997    3.9178   -0.6721 H   0  0  0  0  0  0
   -5.8288    2.6017    0.2413 H   0  0  0  0  0  0
   -4.2679    0.9830   -0.7345 H   0  0  0  0  0  0
   -2.6300    3.3300    0.3929 H   0  0  0  0  0  0
   -3.7119    2.3818    1.3386 H   0  0  0  0  0  0
   -1.6735    1.4780    1.8746 H   0  0  0  0  0  0
   -2.3760    0.3030    0.8528 H   0  0  0  0  0  0
   -0.8258    1.8410   -0.9640 H   0  0  0  0  0  0
    0.0280    2.0669    0.5094 H   0  0  0  0  0  0
   -0.2246   -0.6353    0.5956 H   0  0  0  0  0  0
    1.5974   -1.3600    1.4675 H   0  0  0  0  0  0
    2.4491   -1.7627    0.0131 H   0  0  0  0  0  0
    3.5011    0.3015    1.9362 H   0  0  0  0  0  0
    4.1869   -1.2936    1.6532 H   0  0  0  0  0  0
    4.2735    1.2255   -1.7526 H   0  0  0  0  0  0
    6.5240    2.8014    2.1138 H   0  0  0  0  0  0
    5.5071    1.4699    2.6950 H   0  0  0  0  0  0
    5.0191    2.4427    1.3025 H   0  0  0  0  0  0
    8.5377    1.6679    1.5208 H   0  0  0  0  0  0
    9.7677    0.1471    0.0386 H   0  0  0  0  0  0
   -2.4891   -0.1840   -1.1591 H   0  0  0  0  0  0
   -1.7131   -2.3082   -4.7663 H   0  0  0  0  0  0
    0.6662   -2.5161   -4.0404 H   0  0  0  0  0  0
   -4.1491   -3.0197   -3.6445 H   0  0  0  0  0  0
   -6.5392   -2.6660   -4.0974 H   0  0  0  0  0  0
   -7.4903   -0.3843   -4.0635 H   0  0  0  0  0  0
   -6.0399    1.5540   -3.6209 H   0  0  0  0  0  0
   -2.8813    1.7291   -4.0233 H   0  0  0  0  0  0
  1  2  1  0  0  0
  1 38  1  0  0  0
  1 39  1  0  0  0
  1 40  1  0  0  0
  2  3  1  0  0  0
  2 36  1  0  0  0
  2 41  1  0  0  0
  3  4  1  0  0  0
  3 42  1  0  0  0
  3 43  1  0  0  0
  4  5  1  0  0  0
  4 44  1  0  0  0
  4 45  1  0  0  0
  5  6  1  0  0  0
  5 46  1  0  0  0
  5 47  1  0  0  0
  6  7  1  0  0  0
  6 23  1  0  0  0
  6 48  1  0  0  0
  7  8  1  0  0  0
  7 12  1  0  0  0
  8  9  1  0  0  0
  8 49  1  0  0  0
  8 50  1  0  0  0
  9 10  1  0  0  0
  9 51  1  0  0  0
  9 52  1  0  0  0
 10 11  2  0  0  0
 10 14  1  0  0  0
 11 12  1  0  0  0
 11 53  1  0  0  0
 12 13  2  0  0  0
 14 15  2  0  0  0
 14 21  1  0  0  0
 15 16  1  0  0  0
 15 17  1  0  0  0
 16 54  1  0  0  0
 16 55  1  0  0  0
 16 56  1  0  0  0
 17 18  2  0  0  0
 17 57  1  0  0  0
 18 19  1  0  0  0
 18 58  1  0  0  0
 19 20  1  0  0  0
 19 21  2  0  0  0
 21 22  1  0  0  0
 23 24  1  0  0  0
 23 28  2  0  0  0
 24 25  2  0  0  0
 24 59  1  0  0  0
 25 26  1  0  0  0
 25 29  1  0  0  0
 26 27  2  0  0  0
 26 60  1  0  0  0
 27 28  1  0  0  0
 27 61  1  0  0  0
 29 30  2  0  0  0
 29 34  1  0  0  0
 30 31  1  0  0  0
 30 62  1  0  0  0
 31 32  2  0  0  0
 31 63  1  0  0  0
 32 33  1  0  0  0
 32 64  1  0  0  0
 33 34  2  0  0  0
 33 65  1  0  0  0
 34 35  1  0  0  0
 35 36  1  0  0  0
 35 66  1  0  0  0
 36 37  2  0  0  0
M  END
> <chembl_id>
CHEMBL4112267

> <chembl_pref_name>
None

> <i_m_ct_stereo_status>
1

> <s_m_source_file>
sdf/actives_sanitized.sdf

> <i_m_source_file_index>
256

> <i_lp_mmshare_version>
49012

> <i_f3d_flags>
0

> <s_epik_input>
bjFbY0hdW2NIXWMoW2NIXWMxMiljM2MoW2NIXVtjSF1bY0hdW2NIXTMpW05IXUMoPU8pW0NASF0oW0NIM10pW0NIMl1bQ0gyXVtDSDJdW0NAQEhdMk40W0NIMl1bQ0gyXUMoPVtDSF1DND1PKWM1YyhbQ0gzXSlbY0hdW2NIXWMoQ2wpYzVG

> <s_epik_cmdline>
J2VwaWtfcHl0aG9uJywgJy1waHQnLCAnMC41JywgJy1waCcsICc3LjUnLCAnLW50JywgJy1tYScsICcyMDAnLCAnLWltYWUnLCAnPGluZmlsZS5tYWU+JywgJy1vbWFlJywgJzxvdXRmaWxlLm1hZT4n

> <r_lp_tautomer_probability>
1

> <r_epik_Ionization_Penalty>
  0.0001

> <r_epik_Ionization_Penalty_Charging>
  0.0000

> <r_epik_Ionization_Penalty_Neutral>
  0.0001

> <r_epik_State_Penalty>
 -0.0000

> <r_epik_Charging_Adjusted_Penalty>
0

> <i_epik_Tot_Q>
0

> <i_epik_Tot_abs_Q>
0

> <s_lp_Force_Field>
OPLS3e

> <r_lp_Energy>
90.223596

> <b_lp_Chiralities_Consistent>
1

> <s_lp_Variant>
sdf/actives_sanitized.sdf:256-1

$$$$
sdf/actives_sanitized.sdf:257
                    3D
 Schrodinger Suite 2020-1.
 73 78  0  0  1  0            999 V2000
   -9.7376   -0.3177   -0.4395 C   0  0  0  0  0  0
   -8.5713   -0.7818    0.4566 C   0  0  2  0  0  0
   -7.2638   -1.0025   -0.3602 C   0  0  0  0  0  0
   -6.5494    0.2954   -0.8225 C   0  0  0  0  0  0
   -4.9995    0.2033   -0.8643 C   0  0  0  0  0  0
   -4.2577    0.5283    0.4735 C   0  0  2  0  0  0
   -2.7783    0.5037    0.3465 N   0  0  0  0  0  0
   -2.1311   -0.5750   -0.4597 C   0  0  0  0  0  0
   -0.6689   -0.8764   -0.0321 C   0  0  0  0  0  0
    0.0623    0.4318    0.1880 C   0  0  0  0  0  0
   -0.6193    1.4610    0.7236 C   0  0  0  0  0  0
   -2.0384    1.4558    1.0052 C   0  0  0  0  0  0
   -2.5115    2.2718    1.7984 O   0  0  0  0  0  0
    1.5380    0.4705    0.1441 C   0  0  0  0  0  0
    2.2600    0.1234    1.2978 C   0  0  0  0  0  0
    1.6030   -0.2347    2.4283 F   0  0  0  0  0  0
    3.6564    0.1426    1.2940 C   0  0  0  0  0  0
    4.5455   -0.2842    2.7130 Cl  0  0  0  0  0  0
    4.3429    0.5079    0.1395 C   0  0  0  0  0  0
    3.6377    0.8504   -1.0108 C   0  0  0  0  0  0
    2.2379    0.8293   -1.0275 C   0  0  0  0  0  0
    1.5722    1.2293   -2.3066 C   0  0  0  0  0  0
    1.9126    2.2982   -3.1552 C   0  0  0  0  0  0
    1.1328    2.4059   -4.2070 N   0  0  0  0  0  0
    0.2711    1.3915   -4.0858 N   0  0  0  0  0  0
   -0.7696    1.2140   -5.0829 C   0  0  0  0  0  0
    0.4895    0.6507   -2.9549 C   0  0  0  0  0  0
   -4.7842   -0.3045    1.6466 C   0  0  0  0  0  0
   -5.8953    0.1475    2.3614 C   0  0  0  0  0  0
   -6.5401   -0.7242    3.2425 C   0  0  0  0  0  0
   -5.9667   -1.9790    3.4820 C   0  0  0  0  0  0
   -4.7959   -2.3249    2.8038 C   0  0  0  0  0  0
   -4.2126   -1.5180    1.8811 N   0  0  0  0  0  0
   -7.8494   -0.3354    3.8230 C   0  0  0  0  0  0
   -7.9007    0.7391    4.7199 C   0  0  0  0  0  0
   -9.1099    1.1524    5.2767 C   0  0  0  0  0  0
  -10.2912    0.4965    4.9406 C   0  0  0  0  0  0
  -10.2644   -0.5678    4.0423 C   0  0  0  0  0  0
   -9.0574   -0.9785    3.4672 C   0  0  0  0  0  0
   -9.1194   -2.0692    2.5850 N   0  0  0  0  0  0
   -8.9530   -2.0649    1.2424 C   0  0  0  0  0  0
   -9.1093   -3.1125    0.6160 O   0  0  0  0  0  0
  -10.6394   -0.1312    0.1458 H   0  0  0  0  0  0
   -9.9875   -1.0617   -1.1975 H   0  0  0  0  0  0
   -9.4922    0.6104   -0.9566 H   0  0  0  0  0  0
   -8.3924    0.0239    1.1651 H   0  0  0  0  0  0
   -6.5700   -1.5993    0.2311 H   0  0  0  0  0  0
   -7.4674   -1.6297   -1.2300 H   0  0  0  0  0  0
   -6.9181    0.5453   -1.8183 H   0  0  0  0  0  0
   -6.8371    1.1427   -0.1994 H   0  0  0  0  0  0
   -4.7165   -0.7782   -1.2454 H   0  0  0  0  0  0
   -4.6478    0.9154   -1.6125 H   0  0  0  0  0  0
   -4.5417    1.5590    0.6961 H   0  0  0  0  0  0
   -2.7558   -1.4649   -0.5355 H   0  0  0  0  0  0
   -2.0848   -0.1797   -1.4748 H   0  0  0  0  0  0
   -0.6967   -1.4246    0.9109 H   0  0  0  0  0  0
   -0.1637   -1.5109   -0.7604 H   0  0  0  0  0  0
   -0.0765    2.3552    0.9971 H   0  0  0  0  0  0
    5.4229    0.5260    0.1316 H   0  0  0  0  0  0
    4.1910    1.1294   -1.8960 H   0  0  0  0  0  0
    2.7201    2.9965   -2.9904 H   0  0  0  0  0  0
   -1.2753    0.2603   -4.9277 H   0  0  0  0  0  0
   -0.3298    1.2237   -6.0812 H   0  0  0  0  0  0
   -1.4959    2.0228   -4.9959 H   0  0  0  0  0  0
   -0.1301   -0.2022   -2.7251 H   0  0  0  0  0  0
   -6.3302    1.1115    2.1395 H   0  0  0  0  0  0
   -6.4292   -2.6784    4.1632 H   0  0  0  0  0  0
   -4.3298   -3.2855    2.9661 H   0  0  0  0  0  0
   -6.9933    1.2590    4.9927 H   0  0  0  0  0  0
   -9.1300    1.9803    5.9701 H   0  0  0  0  0  0
  -11.2279    0.8138    5.3747 H   0  0  0  0  0  0
  -11.1893   -1.0667    3.7893 H   0  0  0  0  0  0
   -9.4374   -2.9349    2.9955 H   0  0  0  0  0  0
  1  2  1  0  0  0
  1 43  1  0  0  0
  1 44  1  0  0  0
  1 45  1  0  0  0
  2  3  1  0  0  0
  2 41  1  0  0  0
  2 46  1  0  0  0
  3  4  1  0  0  0
  3 47  1  0  0  0
  3 48  1  0  0  0
  4  5  1  0  0  0
  4 49  1  0  0  0
  4 50  1  0  0  0
  5  6  1  0  0  0
  5 51  1  0  0  0
  5 52  1  0  0  0
  6  7  1  0  0  0
  6 28  1  0  0  0
  6 53  1  0  0  0
  7  8  1  0  0  0
  7 12  1  0  0  0
  8  9  1  0  0  0
  8 54  1  0  0  0
  8 55  1  0  0  0
  9 10  1  0  0  0
  9 56  1  0  0  0
  9 57  1  0  0  0
 10 11  2  0  0  0
 10 14  1  0  0  0
 11 12  1  0  0  0
 11 58  1  0  0  0
 12 13  2  0  0  0
 14 15  2  0  0  0
 14 21  1  0  0  0
 15 16  1  0  0  0
 15 17  1  0  0  0
 17 18  1  0  0  0
 17 19  2  0  0  0
 19 20  1  0  0  0
 19 59  1  0  0  0
 20 21  2  0  0  0
 20 60  1  0  0  0
 21 22  1  0  0  0
 22 23  1  0  0  0
 22 27  2  0  0  0
 23 24  2  0  0  0
 23 61  1  0  0  0
 24 25  1  0  0  0
 25 26  1  0  0  0
 25 27  1  0  0  0
 26 62  1  0  0  0
 26 63  1  0  0  0
 26 64  1  0  0  0
 27 65  1  0  0  0
 28 29  1  0  0  0
 28 33  2  0  0  0
 29 30  2  0  0  0
 29 66  1  0  0  0
 30 31  1  0  0  0
 30 34  1  0  0  0
 31 32  2  0  0  0
 31 67  1  0  0  0
 32 33  1  0  0  0
 32 68  1  0  0  0
 34 35  2  0  0  0
 34 39  1  0  0  0
 35 36  1  0  0  0
 35 69  1  0  0  0
 36 37  2  0  0  0
 36 70  1  0  0  0
 37 38  1  0  0  0
 37 71  1  0  0  0
 38 39  2  0  0  0
 38 72  1  0  0  0
 39 40  1  0  0  0
 40 41  1  0  0  0
 40 73  1  0  0  0
 41 42  2  0  0  0
M  END
> <chembl_id>
CHEMBL4112391

> <chembl_pref_name>
None

> <i_m_ct_stereo_status>
1

> <s_m_source_file>
sdf/actives_sanitized.sdf

> <i_m_source_file_index>
257

> <i_lp_mmshare_version>
49012

> <i_f3d_flags>
0

> <s_epik_input>
bjFbY0hdW2NIXWMoW2NIXWMxMiljM2MoW2NIXVtjSF1bY0hdW2NIXTMpW05IXUMoPU8pW0NASF0oW0NIM10pW0NIMl1bQ0gyXVtDSDJdW0NAQEhdMk40W0NIMl1bQ0gyXUMoPVtDSF1DND1PKWM1YyhGKWMoQ2wpW2NIXVtjSF1jNS1jNltjSF1ubihbQ0gzXSlbY0hdNg==

> <s_epik_cmdline>
J2VwaWtfcHl0aG9uJywgJy1waHQnLCAnMC41JywgJy1waCcsICc3LjUnLCAnLW50JywgJy1tYScsICcyMDAnLCAnLWltYWUnLCAnPGluZmlsZS5tYWU+JywgJy1vbWFlJywgJzxvdXRmaWxlLm1hZT4n

> <r_lp_tautomer_probability>
1

> <r_epik_Ionization_Penalty>
  0.0001

> <r_epik_Ionization_Penalty_Charging>
  0.0000

> <r_epik_Ionization_Penalty_Neutral>
  0.0001

> <r_epik_State_Penalty>
 -0.0000

> <r_epik_Charging_Adjusted_Penalty>
0

> <i_epik_Tot_Q>
0

> <i_epik_Tot_abs_Q>
0

> <s_lp_Force_Field>
OPLS3e

> <r_lp_Energy>
95.052743

> <b_lp_Chiralities_Consistent>
1

> <s_lp_Variant>
sdf/actives_sanitized.sdf:257-1

$$$$
sdf/actives_sanitized.sdf:258
                    3D
 Schrodinger Suite 2020-1.
 66 70  0  0  1  0            999 V2000
   -4.7969    3.3401   -0.7704 C   0  0  0  0  0  0
   -3.6613    2.2934   -0.7651 C   0  0  2  0  0  0
   -2.8676    2.3624    0.5895 C   0  0  0  0  0  0
   -2.0029    1.1393    1.0191 C   0  0  0  0  0  0
   -0.5972    1.0399    0.3642 C   0  0  0  0  0  0
   -0.0181   -0.4009    0.1265 C   0  0  2  0  0  0
    1.4587   -0.3060    0.0483 N   0  0  0  0  0  0
    2.0629    0.3721   -1.1344 C   0  0  0  0  0  0
    3.5180   -0.0987   -1.3935 C   0  0  0  0  0  0
    4.2912   -0.0418   -0.0858 C   0  0  0  0  0  0
    3.6316   -0.3514    1.0495 C   0  0  0  0  0  0
    2.2173   -0.6490    1.1407 C   0  0  0  0  0  0
    1.7707   -1.2124    2.1414 O   0  0  0  0  0  0
    5.7722    0.0590   -0.0821 C   0  0  0  0  0  0
    6.4192    0.9647    0.7765 C   0  0  0  0  0  0
    5.7048    1.7617    1.6063 F   0  0  0  0  0  0
    7.8094    1.0716    0.7801 C   0  0  0  0  0  0
    8.5749    0.2804   -0.0718 C   0  0  0  0  0  0
    7.9515   -0.6224   -0.9306 C   0  0  0  0  0  0
    8.9162   -1.5990   -1.9805 Cl  0  0  0  0  0  0
    6.5575   -0.7350   -0.9374 C   0  0  0  0  0  0
    5.9752   -1.6329   -1.7679 F   0  0  0  0  0  0
   -0.6453   -1.1483   -1.0874 C   0  0  0  0  0  0
   -1.8409   -0.6961   -1.6408 C   0  0  0  0  0  0
   -2.3995   -1.2256   -2.7957 C   0  0  0  0  0  0
   -1.7465   -2.3160   -3.3814 C   0  0  0  0  0  0
   -0.5840   -2.8204   -2.7901 C   0  0  0  0  0  0
   -0.0733   -2.2391   -1.6772 N   0  3  0  0  0  0
    0.9607   -2.7655   -1.1839 O   0  5  0  0  0  0
   -3.6753   -0.6428   -3.3164 C   0  0  0  0  0  0
   -4.7006   -1.5161   -3.7061 C   0  0  0  0  0  0
   -5.9312   -1.0383   -4.1521 C   0  0  0  0  0  0
   -6.1625    0.3329   -4.2236 C   0  0  0  0  0  0
   -7.3914    0.8110   -4.6753 N   0  0  0  0  0  0
   -5.1588    1.2248   -3.8517 C   0  0  0  0  0  0
   -3.9247    0.7537   -3.3880 C   0  0  0  0  0  0
   -2.9298    1.7168   -3.1363 N   0  0  0  0  0  0
   -2.7823    2.4910   -2.0332 C   0  0  0  0  0  0
   -1.9266    3.3748   -2.0295 O   0  0  0  0  0  0
   -5.3962    3.2855   -1.6802 H   0  0  0  0  0  0
   -4.4086    4.3573   -0.6959 H   0  0  0  0  0  0
   -5.4795    3.1865    0.0662 H   0  0  0  0  0  0
   -4.1507    1.3202   -0.8082 H   0  0  0  0  0  0
   -2.2640    3.2708    0.6329 H   0  0  0  0  0  0
   -3.6022    2.4912    1.3862 H   0  0  0  0  0  0
   -1.8482    1.1985    2.0978 H   0  0  0  0  0  0
   -2.5781    0.2215    0.8993 H   0  0  0  0  0  0
   -0.5753    1.5783   -0.5817 H   0  0  0  0  0  0
    0.0828    1.6058    1.0041 H   0  0  0  0  0  0
   -0.3033   -1.0088    0.9865 H   0  0  0  0  0  0
    1.4098    0.3678   -2.0073 H   0  0  0  0  0  0
    2.1534    1.4217   -0.8496 H   0  0  0  0  0  0
    3.4779   -1.1280   -1.7528 H   0  0  0  0  0  0
    3.9935    0.5055   -2.1666 H   0  0  0  0  0  0
    4.1910   -0.4204    1.9721 H   0  0  0  0  0  0
    8.2952    1.7729    1.4425 H   0  0  0  0  0  0
    9.6514    0.3696   -0.0641 H   0  0  0  0  0  0
   -2.3746    0.0939   -1.1751 H   0  0  0  0  0  0
   -2.1407   -2.7804   -4.2735 H   0  0  0  0  0  0
   -0.0456   -3.6740   -3.1781 H   0  0  0  0  0  0
   -4.5529   -2.5851   -3.6499 H   0  0  0  0  0  0
   -6.7010   -1.7399   -4.4404 H   0  0  0  0  0  0
   -7.5405    1.8068   -4.7505 H   0  0  0  0  0  0
   -8.1022    0.1557   -4.9674 H   0  0  0  0  0  0
   -5.3335    2.2889   -3.9334 H   0  0  0  0  0  0
   -2.2864    1.8790   -3.8973 H   0  0  0  0  0  0
  1  2  1  0  0  0
  1 40  1  0  0  0
  1 41  1  0  0  0
  1 42  1  0  0  0
  2  3  1  0  0  0
  2 38  1  0  0  0
  2 43  1  0  0  0
  3  4  1  0  0  0
  3 44  1  0  0  0
  3 45  1  0  0  0
  4  5  1  0  0  0
  4 46  1  0  0  0
  4 47  1  0  0  0
  5  6  1  0  0  0
  5 48  1  0  0  0
  5 49  1  0  0  0
  6  7  1  0  0  0
  6 23  1  0  0  0
  6 50  1  0  0  0
  7  8  1  0  0  0
  7 12  1  0  0  0
  8  9  1  0  0  0
  8 51  1  0  0  0
  8 52  1  0  0  0
  9 10  1  0  0  0
  9 53  1  0  0  0
  9 54  1  0  0  0
 10 11  2  0  0  0
 10 14  1  0  0  0
 11 12  1  0  0  0
 11 55  1  0  0  0
 12 13  2  0  0  0
 14 15  2  0  0  0
 14 21  1  0  0  0
 15 16  1  0  0  0
 15 17  1  0  0  0
 17 18  2  0  0  0
 17 56  1  0  0  0
 18 19  1  0  0  0
 18 57  1  0  0  0
 19 20  1  0  0  0
 19 21  2  0  0  0
 21 22  1  0  0  0
 23 24  1  0  0  0
 23 28  2  0  0  0
 24 25  2  0  0  0
 24 58  1  0  0  0
 25 26  1  0  0  0
 25 30  1  0  0  0
 26 27  2  0  0  0
 26 59  1  0  0  0
 27 28  1  0  0  0
 27 60  1  0  0  0
 28 29  1  0  0  0
 30 31  2  0  0  0
 30 36  1  0  0  0
 31 32  1  0  0  0
 31 61  1  0  0  0
 32 33  2  0  0  0
 32 62  1  0  0  0
 33 34  1  0  0  0
 33 35  1  0  0  0
 34 63  1  0  0  0
 34 64  1  0  0  0
 35 36  2  0  0  0
 35 65  1  0  0  0
 36 37  1  0  0  0
 37 38  1  0  0  0
 37 66  1  0  0  0
 38 39  2  0  0  0
M  CHG  2  28   1  29  -1
M  END
> <chembl_id>
CHEMBL4107516

> <chembl_pref_name>
None

> <i_m_ct_stereo_status>
1

> <s_m_source_file>
sdf/actives_sanitized.sdf

> <i_m_source_file_index>
258

> <i_lp_mmshare_version>
49012

> <i_f3d_flags>
0

> <s_epik_input>
W08tXVtuK10xW2NIXVtjSF1jKFtjSF1jMTIpYzNjKFtjSF1jKFtOSDJdKVtjSF1bY0hdMylbTkhdQyg9TylbQ0BIXShbQ0gzXSlbQ0gyXVtDSDJdW0NIMl1bQ0BASF0yTjRbQ0gyXVtDSDJdQyg9W0NIXUM0PU8pYzVjKEYpW2NIXVtjSF1jKENsKWM1Rg==

> <s_epik_cmdline>
J2VwaWtfcHl0aG9uJywgJy1waHQnLCAnMC41JywgJy1waCcsICc3LjUnLCAnLW50JywgJy1tYScsICcyMDAnLCAnLWltYWUnLCAnPGluZmlsZS5tYWU+JywgJy1vbWFlJywgJzxvdXRmaWxlLm1hZT4n

> <r_lp_tautomer_probability>
1

> <r_epik_Ionization_Penalty>
  0.0000

> <r_epik_Ionization_Penalty_Charging>
  0.0000

> <r_epik_Ionization_Penalty_Neutral>
  0.0000

> <r_epik_State_Penalty>
 -0.0000

> <r_epik_Charging_Adjusted_Penalty>
5.49524773205842e-07

> <i_epik_Tot_Q>
0

> <i_epik_Tot_abs_Q>
2

> <s_lp_Force_Field>
OPLS3e

> <r_lp_Energy>
98.805492

> <b_lp_Chiralities_Consistent>
1

> <s_lp_Variant>
sdf/actives_sanitized.sdf:258-1

$$$$
sdf/actives_sanitized.sdf:259
                    3D
 Schrodinger Suite 2020-1.
 67 71  0  0  1  0            999 V2000
   -5.2462    1.7627   -0.9384 C   0  0  0  0  0  0
   -4.1259    0.9559   -1.6258 C   0  0  2  0  0  0
   -2.7410    1.6557   -1.4924 C   0  0  0  0  0  0
   -2.0989    1.5822   -0.0814 C   0  0  0  0  0  0
   -0.5486    1.4848   -0.0793 C   0  0  0  0  0  0
    0.0464    0.0430   -0.1909 C   0  0  2  0  0  0
    1.5276    0.0056   -0.0931 N   0  0  0  0  0  0
    2.3386    1.0504   -0.7877 C   0  0  0  0  0  0
    3.7668    0.5680   -1.1608 C   0  0  0  0  0  0
    4.3729   -0.1536    0.0297 C   0  0  0  0  0  0
    3.5530   -0.9094    0.7865 C   0  0  0  0  0  0
    2.1206   -1.0144    0.6101 C   0  0  0  0  0  0
    1.5117   -1.9803    1.0740 O   0  0  0  0  0  0
    5.8436   -0.2753    0.1805 C   0  0  0  0  0  0
    6.4526   -0.0107    1.4193 C   0  0  0  0  0  0
    5.7102    0.3678    2.4868 F   0  0  0  0  0  0
    7.8347   -0.1199    1.5693 C   0  0  0  0  0  0
    8.6291   -0.4930    0.4888 C   0  0  0  0  0  0
    8.0430   -0.7577   -0.7472 C   0  0  0  0  0  0
    9.0427   -1.2236   -2.0776 Cl  0  0  0  0  0  0
    6.6573   -0.6496   -0.9035 C   0  0  0  0  0  0
    6.1077   -0.9273   -2.1101 F   0  0  0  0  0  0
   -0.5044   -0.7200   -1.3997 C   0  0  0  0  0  0
   -1.7054   -1.4213   -1.2758 C   0  0  0  0  0  0
   -2.3466   -1.8850   -2.4273 C   0  0  0  0  0  0
   -1.6926   -1.7496   -3.6580 C   0  0  0  0  0  0
   -0.4444   -1.1241   -3.6921 C   0  0  0  0  0  0
    0.1449   -0.5937   -2.5901 N   0  0  0  0  0  0
   -3.7274   -2.4194   -2.3262 C   0  0  0  0  0  0
   -3.9419   -3.6124   -1.6299 C   0  0  0  0  0  0
   -5.2217   -4.1450   -1.4905 C   0  0  0  0  0  0
   -6.3345   -3.4949   -2.0459 C   0  0  0  0  0  0
   -6.1238   -2.2920   -2.7352 C   0  0  0  0  0  0
   -4.8438   -1.7442   -2.8649 C   0  0  0  0  0  0
   -4.7422   -0.5451   -3.5892 N   0  0  0  0  0  0
   -4.4669    0.6925   -3.1170 C   0  0  0  0  0  0
   -4.4854    1.6477   -3.8925 O   0  0  0  0  0  0
   -7.7364   -4.0527   -1.9108 C   0  0  0  0  0  0
   -8.7235   -3.3987   -2.2459 O   0  0  0  0  0  0
   -7.8633   -5.2883   -1.4138 N   0  0  0  0  0  0
   -6.2073    1.2514   -1.0112 H   0  0  0  0  0  0
   -5.3665    2.7512   -1.3845 H   0  0  0  0  0  0
   -5.0360    1.9033    0.1223 H   0  0  0  0  0  0
   -4.0727    0.0028   -1.1046 H   0  0  0  0  0  0
   -2.0531    1.2259   -2.2196 H   0  0  0  0  0  0
   -2.8184    2.7009   -1.7970 H   0  0  0  0  0  0
   -2.3996    2.4736    0.4711 H   0  0  0  0  0  0
   -2.5080    0.7492    0.4916 H   0  0  0  0  0  0
   -0.1546    2.1365   -0.8594 H   0  0  0  0  0  0
   -0.1942    1.9120    0.8600 H   0  0  0  0  0  0
   -0.3432   -0.4772    0.6866 H   0  0  0  0  0  0
    1.8006    1.5057   -1.6189 H   0  0  0  0  0  0
    2.4623    1.8518   -0.0580 H   0  0  0  0  0  0
    3.6743   -0.1268   -1.9966 H   0  0  0  0  0  0
    4.3885    1.4019   -1.4885 H   0  0  0  0  0  0
    3.9822   -1.5187    1.5697 H   0  0  0  0  0  0
    8.2920    0.0879    2.5256 H   0  0  0  0  0  0
    9.6992   -0.5757    0.6128 H   0  0  0  0  0  0
   -2.1991   -1.4897   -0.3170 H   0  0  0  0  0  0
   -2.1508   -2.1027   -4.5704 H   0  0  0  0  0  0
    0.0849   -1.0028   -4.6256 H   0  0  0  0  0  0
   -3.1055   -4.1379   -1.1914 H   0  0  0  0  0  0
   -5.3286   -5.0696   -0.9421 H   0  0  0  0  0  0
   -6.9628   -1.7670   -3.1724 H   0  0  0  0  0  0
   -5.0225   -0.6043   -4.5573 H   0  0  0  0  0  0
   -7.0473   -5.8167   -1.1428 H   0  0  0  0  0  0
   -8.7797   -5.6987   -1.3088 H   0  0  0  0  0  0
  1  2  1  0  0  0
  1 41  1  0  0  0
  1 42  1  0  0  0
  1 43  1  0  0  0
  2  3  1  0  0  0
  2 36  1  0  0  0
  2 44  1  0  0  0
  3  4  1  0  0  0
  3 45  1  0  0  0
  3 46  1  0  0  0
  4  5  1  0  0  0
  4 47  1  0  0  0
  4 48  1  0  0  0
  5  6  1  0  0  0
  5 49  1  0  0  0
  5 50  1  0  0  0
  6  7  1  0  0  0
  6 23  1  0  0  0
  6 51  1  0  0  0
  7  8  1  0  0  0
  7 12  1  0  0  0
  8  9  1  0  0  0
  8 52  1  0  0  0
  8 53  1  0  0  0
  9 10  1  0  0  0
  9 54  1  0  0  0
  9 55  1  0  0  0
 10 11  2  0  0  0
 10 14  1  0  0  0
 11 12  1  0  0  0
 11 56  1  0  0  0
 12 13  2  0  0  0
 14 15  2  0  0  0
 14 21  1  0  0  0
 15 16  1  0  0  0
 15 17  1  0  0  0
 17 18  2  0  0  0
 17 57  1  0  0  0
 18 19  1  0  0  0
 18 58  1  0  0  0
 19 20  1  0  0  0
 19 21  2  0  0  0
 21 22  1  0  0  0
 23 24  1  0  0  0
 23 28  2  0  0  0
 24 25  2  0  0  0
 24 59  1  0  0  0
 25 26  1  0  0  0
 25 29  1  0  0  0
 26 27  2  0  0  0
 26 60  1  0  0  0
 27 28  1  0  0  0
 27 61  1  0  0  0
 29 30  2  0  0  0
 29 34  1  0  0  0
 30 31  1  0  0  0
 30 62  1  0  0  0
 31 32  2  0  0  0
 31 63  1  0  0  0
 32 33  1  0  0  0
 32 38  1  0  0  0
 33 34  2  0  0  0
 33 64  1  0  0  0
 34 35  1  0  0  0
 35 36  1  0  0  0
 35 65  1  0  0  0
 36 37  2  0  0  0
 38 39  2  0  0  0
 38 40  1  0  0  0
 40 66  1  0  0  0
 40 67  1  0  0  0
M  END
> <chembl_id>
CHEMBL3929617

> <chembl_pref_name>
None

> <i_m_ct_stereo_status>
1

> <s_m_source_file>
sdf/actives_sanitized.sdf

> <i_m_source_file_index>
259

> <i_lp_mmshare_version>
49012

> <i_f3d_flags>
0

> <s_epik_input>
bjFbY0hdW2NIXWMoW2NIXWMxMiljM2MoW2NIXWMoW2NIXVtjSF0zKUMoPU8pW05IMl0pW05IXUMoPU8pW0NASF0oW0NIM10pW0NIMl1bQ0gyXVtDSDJdW0NAQEhdMk40W0NIMl1bQ0gyXUMoPVtDSF1DND1PKWM1YyhGKVtjSF1bY0hdYyhDbCljNUY=

> <s_epik_cmdline>
J2VwaWtfcHl0aG9uJywgJy1waHQnLCAnMC41JywgJy1waCcsICc3LjUnLCAnLW50JywgJy1tYScsICcyMDAnLCAnLWltYWUnLCAnPGluZmlsZS5tYWU+JywgJy1vbWFlJywgJzxvdXRmaWxlLm1hZT4n

> <r_lp_tautomer_probability>
1

> <r_epik_Ionization_Penalty>
  0.0001

> <r_epik_Ionization_Penalty_Charging>
  0.0000

> <r_epik_Ionization_Penalty_Neutral>
  0.0001

> <r_epik_State_Penalty>
 -0.0000

> <r_epik_Charging_Adjusted_Penalty>
0

> <i_epik_Tot_Q>
0

> <i_epik_Tot_abs_Q>
0

> <s_lp_Force_Field>
OPLS3e

> <r_lp_Energy>
96.297454

> <b_lp_Chiralities_Consistent>
1

> <s_lp_Variant>
sdf/actives_sanitized.sdf:259-1

$$$$
sdf/actives_sanitized.sdf:260
                    3D
 Schrodinger Suite 2020-1.
 74 78  0  0  1  0            999 V2000
  -10.2864   -6.1261   -0.6296 C   0  0  0  0  0  0
   -9.5041   -5.0934   -1.2136 O   0  0  0  0  0  0
   -8.1680   -5.0544   -1.0370 C   0  0  0  0  0  0
   -7.5301   -5.8776   -0.3772 O   0  0  0  0  0  0
   -7.6705   -3.9461   -1.7160 N   0  0  0  0  0  0
   -6.3469   -3.4897   -1.8381 C   0  0  0  0  0  0
   -5.2284   -4.1354   -1.2919 C   0  0  0  0  0  0
   -3.9533   -3.6054   -1.4771 C   0  0  0  0  0  0
   -3.7564   -2.4293   -2.2084 C   0  0  0  0  0  0
   -4.8858   -1.7654   -2.7358 C   0  0  0  0  0  0
   -4.8027   -0.5855   -3.4929 N   0  0  0  0  0  0
   -4.5116    0.6634   -3.0620 C   0  0  0  0  0  0
   -4.5489    1.5971   -3.8625 O   0  0  0  0  0  0
   -4.1302    0.9664   -1.5881 C   0  0  2  0  0  0
   -5.2277    1.7989   -0.8941 C   0  0  0  0  0  0
   -2.7390    1.6619   -1.5089 C   0  0  0  0  0  0
   -2.0646    1.6231   -0.1115 C   0  0  0  0  0  0
   -0.5151    1.5175   -0.1393 C   0  0  0  0  0  0
    0.0672    0.0689   -0.2188 C   0  0  2  0  0  0
    1.5490    0.0216   -0.1407 N   0  0  0  0  0  0
    2.3575    1.0410   -0.8740 C   0  0  0  0  0  0
    3.7807    0.5417   -1.2444 C   0  0  0  0  0  0
    4.3946   -0.1452   -0.0375 C   0  0  0  0  0  0
    3.5784   -0.8755    0.7480 C   0  0  0  0  0  0
    2.1442   -0.9807    0.5860 C   0  0  0  0  0  0
    1.5354   -1.9306    1.0819 O   0  0  0  0  0  0
    5.8669   -0.2599    0.1070 C   0  0  0  0  0  0
    6.4808    0.0323    1.3367 C   0  0  0  0  0  0
    5.7425    0.4254    2.4021 F   0  0  0  0  0  0
    7.8638   -0.0621    1.4798 C   0  0  0  0  0  0
    8.6546   -0.4467    0.4013 C   0  0  0  0  0  0
    8.0678   -0.7446   -0.8293 C   0  0  0  0  0  0
    8.9600   -1.1620   -1.9886 C   0  0  0  0  0  0
    6.6764   -0.6501   -0.9752 C   0  0  0  0  0  0
    6.1124   -0.9569   -2.1685 F   0  0  0  0  0  0
   -0.5087   -0.7205   -1.3977 C   0  0  0  0  0  0
   -1.7063   -1.4180   -1.2302 C   0  0  0  0  0  0
   -2.3783   -1.8995   -2.3563 C   0  0  0  0  0  0
   -1.7570   -1.7853   -3.6061 C   0  0  0  0  0  0
   -0.5091   -1.1629   -3.6832 C   0  0  0  0  0  0
    0.1097   -0.6148   -2.6062 N   0  0  0  0  0  0
   -6.1619   -2.3094   -2.5614 C   0  0  0  0  0  0
  -11.3363   -5.9854   -0.8864 H   0  0  0  0  0  0
  -10.1986   -6.1167    0.4578 H   0  0  0  0  0  0
   -9.9761   -7.1063   -0.9944 H   0  0  0  0  0  0
   -8.3588   -3.3833   -2.1941 H   0  0  0  0  0  0
   -5.3122   -5.0481   -0.7249 H   0  0  0  0  0  0
   -3.1060   -4.1215   -1.0484 H   0  0  0  0  0  0
   -5.1074   -0.6697   -4.4518 H   0  0  0  0  0  0
   -4.0676    0.0279   -1.0419 H   0  0  0  0  0  0
   -6.1917    1.2887   -0.9222 H   0  0  0  0  0  0
   -5.3585    2.7735   -1.3674 H   0  0  0  0  0  0
   -4.9863    1.9724    0.1551 H   0  0  0  0  0  0
   -2.0706    1.2089   -2.2404 H   0  0  0  0  0  0
   -2.8204    2.6989   -1.8399 H   0  0  0  0  0  0
   -2.3499    2.5290    0.4250 H   0  0  0  0  0  0
   -2.4637    0.8065    0.4910 H   0  0  0  0  0  0
   -0.1331    2.1421   -0.9472 H   0  0  0  0  0  0
   -0.1388    1.9707    0.7790 H   0  0  0  0  0  0
   -0.3141   -0.4238    0.6781 H   0  0  0  0  0  0
    1.8139    1.4734   -1.7139 H   0  0  0  0  0  0
    2.4907    1.8636   -0.1700 H   0  0  0  0  0  0
    3.6779   -0.1783   -2.0575 H   0  0  0  0  0  0
    4.4019    1.3631   -1.6027 H   0  0  0  0  0  0
    4.0117   -1.4613    1.5468 H   0  0  0  0  0  0
    8.3256    0.1676    2.4288 H   0  0  0  0  0  0
    9.7260   -0.5139    0.5248 H   0  0  0  0  0  0
    8.4228   -1.2321   -2.9346 H   0  0  0  0  0  0
    9.4263   -2.1250   -1.7782 H   0  0  0  0  0  0
    9.7617   -0.4347   -2.1216 H   0  0  0  0  0  0
   -2.1746   -1.4688   -0.2575 H   0  0  0  0  0  0
   -2.2396   -2.1528   -4.5001 H   0  0  0  0  0  0
   -0.0045   -1.0584   -4.6322 H   0  0  0  0  0  0
   -7.0184   -1.8033   -2.9865 H   0  0  0  0  0  0
  1  2  1  0  0  0
  1 43  1  0  0  0
  1 44  1  0  0  0
  1 45  1  0  0  0
  2  3  1  0  0  0
  3  4  2  0  0  0
  3  5  1  0  0  0
  5  6  1  0  0  0
  5 46  1  0  0  0
  6  7  2  0  0  0
  6 42  1  0  0  0
  7  8  1  0  0  0
  7 47  1  0  0  0
  8  9  2  0  0  0
  8 48  1  0  0  0
  9 10  1  0  0  0
  9 38  1  0  0  0
 10 11  1  0  0  0
 10 42  2  0  0  0
 11 12  1  0  0  0
 11 49  1  0  0  0
 12 13  2  0  0  0
 12 14  1  0  0  0
 14 15  1  0  0  0
 14 16  1  0  0  0
 14 50  1  0  0  0
 15 51  1  0  0  0
 15 52  1  0  0  0
 15 53  1  0  0  0
 16 17  1  0  0  0
 16 54  1  0  0  0
 16 55  1  0  0  0
 17 18  1  0  0  0
 17 56  1  0  0  0
 17 57  1  0  0  0
 18 19  1  0  0  0
 18 58  1  0  0  0
 18 59  1  0  0  0
 19 20  1  0  0  0
 19 36  1  0  0  0
 19 60  1  0  0  0
 20 21  1  0  0  0
 20 25  1  0  0  0
 21 22  1  0  0  0
 21 61  1  0  0  0
 21 62  1  0  0  0
 22 23  1  0  0  0
 22 63  1  0  0  0
 22 64  1  0  0  0
 23 24  2  0  0  0
 23 27  1  0  0  0
 24 25  1  0  0  0
 24 65  1  0  0  0
 25 26  2  0  0  0
 27 28  2  0  0  0
 27 34  1  0  0  0
 28 29  1  0  0  0
 28 30  1  0  0  0
 30 31  2  0  0  0
 30 66  1  0  0  0
 31 32  1  0  0  0
 31 67  1  0  0  0
 32 33  1  0  0  0
 32 34  2  0  0  0
 33 68  1  0  0  0
 33 69  1  0  0  0
 33 70  1  0  0  0
 34 35  1  0  0  0
 36 37  1  0  0  0
 36 41  2  0  0  0
 37 38  2  0  0  0
 37 71  1  0  0  0
 38 39  1  0  0  0
 39 40  2  0  0  0
 39 72  1  0  0  0
 40 41  1  0  0  0
 40 73  1  0  0  0
 42 74  1  0  0  0
M  END
> <chembl_id>
CHEMBL4109841

> <chembl_pref_name>
None

> <i_m_ct_stereo_status>
1

> <s_m_source_file>
sdf/actives_sanitized.sdf

> <i_m_source_file_index>
260

> <i_lp_mmshare_version>
49012

> <i_f3d_flags>
0

> <s_epik_input>
W0NIM11PQyg9TylbTkhdYyhbY0hdW2NIXTEpW2NIXWMoYzEyKVtOSF1DKD1PKVtDQEhdKFtDSDNdKVtDSDJdW0NIMl1bQ0gyXVtDQEBIXShjM1tjSF1jMltjSF1bY0hdbjMpTjRbQ0gyXVtDSDJdQyg9W0NIXUM0PU8pYzVjKEYpW2NIXVtjSF1jKFtDSDNdKWM1Rg==

> <s_epik_cmdline>
J2VwaWtfcHl0aG9uJywgJy1waHQnLCAnMC41JywgJy1waCcsICc3LjUnLCAnLW50JywgJy1tYScsICcyMDAnLCAnLWltYWUnLCAnPGluZmlsZS5tYWU+JywgJy1vbWFlJywgJzxvdXRmaWxlLm1hZT4n

> <r_lp_tautomer_probability>
1

> <r_epik_Ionization_Penalty>
  0.0001

> <r_epik_Ionization_Penalty_Charging>
  0.0000

> <r_epik_Ionization_Penalty_Neutral>
  0.0001

> <r_epik_State_Penalty>
 -0.0000

> <r_epik_Charging_Adjusted_Penalty>
0

> <i_epik_Tot_Q>
0

> <i_epik_Tot_abs_Q>
0

> <s_epik_Chemistry_Notes>
This compound has an ester and may undergo hydrolysis at high or low pH.

> <s_lp_Force_Field>
OPLS3e

> <r_lp_Energy>
95.316346

> <b_lp_Chiralities_Consistent>
1

> <s_lp_Variant>
sdf/actives_sanitized.sdf:260-1

$$$$
sdf/actives_sanitized.sdf:261
                    3D
 Schrodinger Suite 2020-1.
 74 78  0  0  1  0            999 V2000
  -11.3574   -0.9860   -4.1600 C   0  0  0  0  0  0
  -10.0675   -0.3965   -4.0719 O   0  0  0  0  0  0
   -8.9736   -1.1561   -3.8608 C   0  0  0  0  0  0
   -8.9918   -2.3830   -3.7397 O   0  0  0  0  0  0
   -7.8655   -0.3172   -3.7945 N   0  0  0  0  0  0
   -6.5122   -0.6401   -3.5994 C   0  0  0  0  0  0
   -5.9970   -1.9452   -3.6080 C   0  0  0  0  0  0
   -4.6362   -2.1656   -3.4003 C   0  0  0  0  0  0
   -3.7605   -1.0995   -3.1742 C   0  0  0  0  0  0
   -4.2760    0.2163   -3.1878 C   0  0  0  0  0  0
   -3.4235    1.3328   -3.1195 N   0  0  0  0  0  0
   -3.2256    2.1765   -2.0806 C   0  0  0  0  0  0
   -2.4988    3.1565   -2.2384 O   0  0  0  0  0  0
   -3.8902    1.9525   -0.6955 C   0  0  2  0  0  0
   -5.1690    2.8144   -0.6014 C   0  0  0  0  0  0
   -2.9461    2.2610    0.5194 C   0  0  0  0  0  0
   -1.8696    1.2093    0.9069 C   0  0  0  0  0  0
   -0.5712    1.1939    0.0538 C   0  0  0  0  0  0
    0.0919   -0.2135   -0.1359 C   0  0  2  0  0  0
    1.5725   -0.1237   -0.1154 N   0  0  0  0  0  0
    2.2363    0.8287   -1.0534 C   0  0  0  0  0  0
    3.6854    0.4010   -1.4103 C   0  0  0  0  0  0
    4.4088    0.0202   -0.1320 C   0  0  0  0  0  0
    3.7099   -0.5845    0.8472 C   0  0  0  0  0  0
    2.2881   -0.8513    0.8032 C   0  0  0  0  0  0
    1.7982   -1.7069    1.5421 O   0  0  0  0  0  0
    5.8837    0.0855   -0.0560 C   0  0  0  0  0  0
    6.7086   -0.7947   -0.7853 C   0  0  0  0  0  0
    6.1293   -1.9064   -1.6517 C   0  0  0  0  0  0
    8.0991   -0.6760   -0.6958 C   0  0  0  0  0  0
    8.6767    0.3103    0.0993 C   0  0  0  0  0  0
    7.8685    1.1885    0.8170 C   0  0  0  0  0  0
    8.5999    2.4091    1.7975 Cl  0  0  0  0  0  0
    6.4777    1.0790    0.7388 C   0  0  0  0  0  0
    5.7017    1.9441    1.4368 F   0  0  0  0  0  0
   -0.4677   -0.9619   -1.3684 C   0  0  0  0  0  0
   -1.8271   -0.8829   -1.6585 C   0  0  0  0  0  0
   -2.3342   -1.3738   -2.8562 C   0  0  0  0  0  0
   -1.4638   -2.0674   -3.7043 C   0  0  0  0  0  0
   -0.1198   -2.1827   -3.3325 C   0  0  0  0  0  0
    0.3868   -1.6288   -2.1973 N   0  0  0  0  0  0
   -5.6401    0.4335   -3.4066 C   0  0  0  0  0  0
  -12.1082   -0.2118   -4.3189 H   0  0  0  0  0  0
  -11.6085   -1.5182   -3.2412 H   0  0  0  0  0  0
  -11.4110   -1.6884   -4.9931 H   0  0  0  0  0  0
   -8.0583    0.6692   -3.8879 H   0  0  0  0  0  0
   -6.6245   -2.8060   -3.7736 H   0  0  0  0  0  0
   -4.2649   -3.1804   -3.3915 H   0  0  0  0  0  0
   -2.8787    1.5063   -3.9518 H   0  0  0  0  0  0
   -4.2168    0.9162   -0.6106 H   0  0  0  0  0  0
   -5.8675    2.5993   -1.4103 H   0  0  0  0  0  0
   -4.9415    3.8810   -0.6427 H   0  0  0  0  0  0
   -5.7026    2.6280    0.3311 H   0  0  0  0  0  0
   -2.4801    3.2418    0.4095 H   0  0  0  0  0  0
   -3.5796    2.3637    1.4021 H   0  0  0  0  0  0
   -1.5677    1.4063    1.9370 H   0  0  0  0  0  0
   -2.3317    0.2251    0.9702 H   0  0  0  0  0  0
   -0.7437    1.6369   -0.9256 H   0  0  0  0  0  0
    0.1305    1.8792    0.5328 H   0  0  0  0  0  0
   -0.2416   -0.8175    0.7096 H   0  0  0  0  0  0
    1.6076    1.0722   -1.9105 H   0  0  0  0  0  0
    2.3357    1.7616   -0.4965 H   0  0  0  0  0  0
    3.6260   -0.4668   -2.0680 H   0  0  0  0  0  0
    4.2078    1.1918   -1.9495 H   0  0  0  0  0  0
    4.2394   -0.9341    1.7227 H   0  0  0  0  0  0
    6.8649   -2.6857   -1.8554 H   0  0  0  0  0  0
    5.7693   -1.5059   -2.5993 H   0  0  0  0  0  0
    5.2941   -2.3942   -1.1480 H   0  0  0  0  0  0
    8.7405   -1.3509   -1.2440 H   0  0  0  0  0  0
    9.7524    0.3911    0.1570 H   0  0  0  0  0  0
   -2.5052   -0.3861   -0.9960 H   0  0  0  0  0  0
   -1.8125   -2.4852   -4.6377 H   0  0  0  0  0  0
    0.5824   -2.7042   -3.9661 H   0  0  0  0  0  0
   -6.0199    1.4453   -3.4426 H   0  0  0  0  0  0
  1  2  1  0  0  0
  1 43  1  0  0  0
  1 44  1  0  0  0
  1 45  1  0  0  0
  2  3  1  0  0  0
  3  4  2  0  0  0
  3  5  1  0  0  0
  5  6  1  0  0  0
  5 46  1  0  0  0
  6  7  2  0  0  0
  6 42  1  0  0  0
  7  8  1  0  0  0
  7 47  1  0  0  0
  8  9  2  0  0  0
  8 48  1  0  0  0
  9 10  1  0  0  0
  9 38  1  0  0  0
 10 11  1  0  0  0
 10 42  2  0  0  0
 11 12  1  0  0  0
 11 49  1  0  0  0
 12 13  2  0  0  0
 12 14  1  0  0  0
 14 15  1  0  0  0
 14 16  1  0  0  0
 14 50  1  0  0  0
 15 51  1  0  0  0
 15 52  1  0  0  0
 15 53  1  0  0  0
 16 17  1  0  0  0
 16 54  1  0  0  0
 16 55  1  0  0  0
 17 18  1  0  0  0
 17 56  1  0  0  0
 17 57  1  0  0  0
 18 19  1  0  0  0
 18 58  1  0  0  0
 18 59  1  0  0  0
 19 20  1  0  0  0
 19 36  1  0  0  0
 19 60  1  0  0  0
 20 21  1  0  0  0
 20 25  1  0  0  0
 21 22  1  0  0  0
 21 61  1  0  0  0
 21 62  1  0  0  0
 22 23  1  0  0  0
 22 63  1  0  0  0
 22 64  1  0  0  0
 23 24  2  0  0  0
 23 27  1  0  0  0
 24 25  1  0  0  0
 24 65  1  0  0  0
 25 26  2  0  0  0
 27 28  2  0  0  0
 27 34  1  0  0  0
 28 29  1  0  0  0
 28 30  1  0  0  0
 29 66  1  0  0  0
 29 67  1  0  0  0
 29 68  1  0  0  0
 30 31  2  0  0  0
 30 69  1  0  0  0
 31 32  1  0  0  0
 31 70  1  0  0  0
 32 33  1  0  0  0
 32 34  2  0  0  0
 34 35  1  0  0  0
 36 37  1  0  0  0
 36 41  2  0  0  0
 37 38  2  0  0  0
 37 71  1  0  0  0
 38 39  1  0  0  0
 39 40  2  0  0  0
 39 72  1  0  0  0
 40 41  1  0  0  0
 40 73  1  0  0  0
 42 74  1  0  0  0
M  END
> <chembl_id>
CHEMBL4114880

> <chembl_pref_name>
None

> <i_m_ct_stereo_status>
1

> <s_m_source_file>
sdf/actives_sanitized.sdf

> <i_m_source_file_index>
261

> <i_lp_mmshare_version>
49012

> <i_f3d_flags>
0

> <s_epik_input>
W0NIM11PQyg9TylbTkhdYyhbY0hdW2NIXTEpW2NIXWMoYzEyKVtOSF1DKD1PKVtDQEhdKFtDSDNdKVtDSDJdW0NIMl1bQ0gyXVtDQEBIXShjM1tjSF1jMltjSF1bY0hdbjMpTjRbQ0gyXVtDSDJdQyg9W0NIXUM0PU8pYzVjKFtDSDNdKVtjSF1bY0hdYyhDbCljNUY=

> <s_epik_cmdline>
J2VwaWtfcHl0aG9uJywgJy1waHQnLCAnMC41JywgJy1waCcsICc3LjUnLCAnLW50JywgJy1tYScsICcyMDAnLCAnLWltYWUnLCAnPGluZmlsZS5tYWU+JywgJy1vbWFlJywgJzxvdXRmaWxlLm1hZT4n

> <r_lp_tautomer_probability>
1

> <r_epik_Ionization_Penalty>
  0.0001

> <r_epik_Ionization_Penalty_Charging>
  0.0000

> <r_epik_Ionization_Penalty_Neutral>
  0.0001

> <r_epik_State_Penalty>
 -0.0000

> <r_epik_Charging_Adjusted_Penalty>
0

> <i_epik_Tot_Q>
0

> <i_epik_Tot_abs_Q>
0

> <s_epik_Chemistry_Notes>
This compound has an ester and may undergo hydrolysis at high or low pH.

> <s_lp_Force_Field>
OPLS3e

> <r_lp_Energy>
94.756491

> <b_lp_Chiralities_Consistent>
1

> <s_lp_Variant>
sdf/actives_sanitized.sdf:261-1

$$$$
sdf/actives_sanitized.sdf:262
                    3D
 Schrodinger Suite 2020-1.
 74 78  0  0  1  0            999 V2000
   -3.2708    1.4612    0.0069 C   0  0  0  0  0  0
   -2.1101    0.6595   -0.1655 O   0  0  0  0  0  0
   -0.8776    1.1852   -0.0152 C   0  0  0  0  0  0
   -0.6552    2.3650    0.2643 O   0  0  0  0  0  0
    0.0563    0.1757   -0.2296 N   0  0  0  0  0  0
    1.4596    0.2239   -0.1631 C   0  0  0  0  0  0
    2.2007    1.3561    0.2047 C   0  0  0  0  0  0
    3.5922    1.2988    0.2515 C   0  0  0  0  0  0
    4.2799    0.1212   -0.0604 C   0  0  0  0  0  0
    3.5342   -1.0111   -0.4561 C   0  0  0  0  0  0
    4.1212   -2.2456   -0.7793 N   0  0  0  0  0  0
    4.8387   -2.5654   -1.8808 C   0  0  0  0  0  0
    5.2309   -3.7228   -2.0250 O   0  0  0  0  0  0
    5.1860   -1.5238   -2.9781 C   0  0  2  0  0  0
    4.4330   -1.8338   -4.2879 C   0  0  0  0  0  0
    6.7257   -1.4443   -3.2001 C   0  0  0  0  0  0
    7.2201   -0.1646   -3.9267 C   0  0  0  0  0  0
    8.6113    0.3492   -3.4642 C   0  0  0  0  0  0
    8.6103    1.3087   -2.2297 C   0  0  2  0  0  0
    9.9607    1.8173   -1.8787 N   0  0  0  0  0  0
   11.1259    0.8817   -1.9029 C   0  0  0  0  0  0
   12.2713    1.2979   -0.9405 C   0  0  0  0  0  0
   12.5134    2.7869   -1.0765 C   0  0  0  0  0  0
   11.4561    3.5902   -1.2958 C   0  0  0  0  0  0
   10.0993    3.1311   -1.5021 C   0  0  0  0  0  0
    9.1549    3.9035   -1.3281 O   0  0  0  0  0  0
   13.8060    3.3593   -0.6705 C   0  0  0  0  0  0
   14.7721    3.2914   -1.6245 N   0  0  0  0  0  0
   15.9992    3.7881   -1.3242 C   0  0  0  0  0  0
   16.3062    4.3548   -0.0861 C   0  0  0  0  0  0
   15.3068    4.4124    0.8883 C   0  0  0  0  0  0
   15.6525    5.1032    2.4333 Cl  0  0  0  0  0  0
   14.0345    3.9067    0.5993 C   0  0  0  0  0  0
   13.0482    3.9440    1.5271 F   0  0  0  0  0  0
    7.8600    0.7123   -1.0355 C   0  0  0  0  0  0
    6.4799    0.8883   -0.9318 C   0  0  0  0  0  0
    5.7633    0.1201   -0.0116 C   0  0  0  0  0  0
    6.4733   -0.7018    0.8722 C   0  0  0  0  0  0
    7.8662   -0.7620    0.7808 C   0  0  0  0  0  0
    8.5525   -1.5739    1.6655 O   0  0  0  0  0  0
    9.9731   -1.6717    1.5709 C   0  0  0  0  0  0
    8.5580   -0.0750   -0.1736 N   0  0  0  0  0  0
    2.1374   -0.9540   -0.4855 C   0  0  0  0  0  0
   -4.1640    0.8536   -0.1381 H   0  0  0  0  0  0
   -3.2942    2.2778   -0.7163 H   0  0  0  0  0  0
   -3.3089    1.8861    1.0111 H   0  0  0  0  0  0
   -0.3264   -0.7287   -0.4635 H   0  0  0  0  0  0
    1.7304    2.2903    0.4650 H   0  0  0  0  0  0
    4.1414    2.1835    0.5406 H   0  0  0  0  0  0
    3.8843   -3.0077   -0.1610 H   0  0  0  0  0  0
    4.8430   -0.5444   -2.6523 H   0  0  0  0  0  0
    3.3536   -1.8599   -4.1304 H   0  0  0  0  0  0
    4.7263   -2.7983   -4.7058 H   0  0  0  0  0  0
    4.6286   -1.0735   -5.0446 H   0  0  0  0  0  0
    7.2301   -1.5258   -2.2380 H   0  0  0  0  0  0
    7.0706   -2.3237   -3.7471 H   0  0  0  0  0  0
    7.2574   -0.3784   -4.9958 H   0  0  0  0  0  0
    6.4945    0.6437   -3.8302 H   0  0  0  0  0  0
    9.2647   -0.5078   -3.2987 H   0  0  0  0  0  0
    9.0563    0.8933   -4.2986 H   0  0  0  0  0  0
    8.0152    2.1656   -2.5522 H   0  0  0  0  0  0
   10.8235   -0.1595   -1.7944 H   0  0  0  0  0  0
   11.5302    0.9540   -2.9136 H   0  0  0  0  0  0
   11.9558    1.0828    0.0818 H   0  0  0  0  0  0
   13.1759    0.7198   -1.1323 H   0  0  0  0  0  0
   11.6060    4.6610   -1.2829 H   0  0  0  0  0  0
   16.7466    3.7246   -2.1014 H   0  0  0  0  0  0
   17.2965    4.7389    0.1116 H   0  0  0  0  0  0
    5.9557    1.5096   -1.6437 H   0  0  0  0  0  0
    5.9512   -1.3029    1.6026 H   0  0  0  0  0  0
   10.3416   -2.3472    2.3425 H   0  0  0  0  0  0
   10.4512   -0.7023    1.7209 H   0  0  0  0  0  0
   10.2819   -2.0721    0.6039 H   0  0  0  0  0  0
    1.5754   -1.8335   -0.7698 H   0  0  0  0  0  0
  1  2  1  0  0  0
  1 44  1  0  0  0
  1 45  1  0  0  0
  1 46  1  0  0  0
  2  3  1  0  0  0
  3  4  2  0  0  0
  3  5  1  0  0  0
  5  6  1  0  0  0
  5 47  1  0  0  0
  6  7  2  0  0  0
  6 43  1  0  0  0
  7  8  1  0  0  0
  7 48  1  0  0  0
  8  9  2  0  0  0
  8 49  1  0  0  0
  9 10  1  0  0  0
  9 37  1  0  0  0
 10 11  1  0  0  0
 10 43  2  0  0  0
 11 12  1  0  0  0
 11 50  1  0  0  0
 12 13  2  0  0  0
 12 14  1  0  0  0
 14 15  1  0  0  0
 14 16  1  0  0  0
 14 51  1  0  0  0
 15 52  1  0  0  0
 15 53  1  0  0  0
 15 54  1  0  0  0
 16 17  1  0  0  0
 16 55  1  0  0  0
 16 56  1  0  0  0
 17 18  1  0  0  0
 17 57  1  0  0  0
 17 58  1  0  0  0
 18 19  1  0  0  0
 18 59  1  0  0  0
 18 60  1  0  0  0
 19 20  1  0  0  0
 19 35  1  0  0  0
 19 61  1  0  0  0
 20 21  1  0  0  0
 20 25  1  0  0  0
 21 22  1  0  0  0
 21 62  1  0  0  0
 21 63  1  0  0  0
 22 23  1  0  0  0
 22 64  1  0  0  0
 22 65  1  0  0  0
 23 24  2  0  0  0
 23 27  1  0  0  0
 24 25  1  0  0  0
 24 66  1  0  0  0
 25 26  2  0  0  0
 27 28  2  0  0  0
 27 33  1  0  0  0
 28 29  1  0  0  0
 29 30  2  0  0  0
 29 67  1  0  0  0
 30 31  1  0  0  0
 30 68  1  0  0  0
 31 32  1  0  0  0
 31 33  2  0  0  0
 33 34  1  0  0  0
 35 36  1  0  0  0
 35 42  2  0  0  0
 36 37  2  0  0  0
 36 69  1  0  0  0
 37 38  1  0  0  0
 38 39  2  0  0  0
 38 70  1  0  0  0
 39 40  1  0  0  0
 39 42  1  0  0  0
 40 41  1  0  0  0
 41 71  1  0  0  0
 41 72  1  0  0  0
 41 73  1  0  0  0
 43 74  1  0  0  0
M  END
> <chembl_id>
CHEMBL4115195

> <chembl_pref_name>
None

> <i_m_ct_stereo_status>
1

> <s_m_source_file>
sdf/actives_sanitized.sdf

> <i_m_source_file_index>
262

> <i_lp_mmshare_version>
49012

> <i_f3d_flags>
0

> <s_epik_input>
W0NIM11PQyg9TylbTkhdYyhbY0hdW2NIXTEpW2NIXWMoYzEyKVtOSF1DKD1PKVtDQEhdKFtDSDNdKVtDSDJdW0NIMl1bQ0gyXVtDQEBIXShjM1tjSF1jMltjSF1jKG4zKU9bQ0gzXSlONFtDSDJdW0NIMl1DKD1bQ0hdQzQ9TyljNW5bY0hdW2NIXWMoQ2wpYzVG

> <s_epik_cmdline>
J2VwaWtfcHl0aG9uJywgJy1waHQnLCAnMC41JywgJy1waCcsICc3LjUnLCAnLW50JywgJy1tYScsICcyMDAnLCAnLWltYWUnLCAnPGluZmlsZS5tYWU+JywgJy1vbWFlJywgJzxvdXRmaWxlLm1hZT4n

> <r_lp_tautomer_probability>
1

> <r_epik_Ionization_Penalty>
  0.0002

> <r_epik_Ionization_Penalty_Charging>
  0.0000

> <r_epik_Ionization_Penalty_Neutral>
  0.0002

> <r_epik_State_Penalty>
 -0.0000

> <r_epik_Charging_Adjusted_Penalty>
0

> <i_epik_Tot_Q>
0

> <i_epik_Tot_abs_Q>
0

> <s_epik_Chemistry_Notes>
This compound has an ester and may undergo hydrolysis at high or low pH.

> <s_lp_Force_Field>
OPLS3e

> <r_lp_Energy>
95.192395

> <b_lp_Chiralities_Consistent>
1

> <s_lp_Variant>
sdf/actives_sanitized.sdf:262-1

$$$$
sdf/actives_sanitized.sdf:263
                    3D
 Schrodinger Suite 2020-1.
 64 68  0  0  1  0            999 V2000
   -4.9486    3.3389   -1.2951 C   0  0  0  0  0  0
   -3.7183    2.4094   -1.2087 C   0  0  2  0  0  0
   -2.8391    2.7958    0.0326 C   0  0  0  0  0  0
   -1.8550    1.7367    0.6032 C   0  0  0  0  0  0
   -0.5117    1.5515   -0.1554 C   0  0  0  0  0  0
    0.0675    0.0950   -0.1480 C   0  0  2  0  0  0
    1.5461    0.0909   -0.0110 N   0  0  0  0  0  0
    2.3555    0.8931   -0.9743 C   0  0  0  0  0  0
    3.7495    1.2617   -0.4021 C   0  0  0  0  0  0
    4.3902    0.0065    0.1682 C   0  0  0  0  0  0
    3.5847   -0.8919    0.7716 C   0  0  0  0  0  0
    2.1408   -0.8057    0.8438 C   0  0  0  0  0  0
    1.5258   -1.4861    1.6668 O   0  0  0  0  0  0
    5.8634   -0.0947    0.3203 C   0  0  0  0  0  0
    6.6152    0.9742    0.8385 C   0  0  0  0  0  0
    6.0143    2.1207    1.2344 F   0  0  0  0  0  0
    7.9994    0.8685    0.9739 C   0  0  0  0  0  0
    8.6542   -0.3006    0.5971 C   0  0  0  0  0  0
    7.9262   -1.3693    0.0789 C   0  0  0  0  0  0
    8.7535   -2.8125   -0.3894 Cl  0  0  0  0  0  0
    6.5387   -1.2683   -0.0614 C   0  0  0  0  0  0
    5.8502   -2.3120   -0.5847 F   0  0  0  0  0  0
   -0.4622   -0.7524   -1.3291 C   0  0  0  0  0  0
   -1.7931   -0.6262   -1.7185 C   0  0  0  0  0  0
   -2.2537   -1.2108   -2.8930 C   0  0  0  0  0  0
   -1.3795   -2.0425   -3.6015 C   0  0  0  0  0  0
   -0.0725   -2.1967   -3.1264 C   0  0  0  0  0  0
    0.3968   -1.5531   -2.0232 N   0  0  0  0  0  0
   -3.6319   -0.8836   -3.3446 C   0  0  0  0  0  0
   -4.5631   -1.9117   -3.5260 C   0  0  0  0  0  0
   -5.8844   -1.6329   -3.8776 C   0  0  0  0  0  0
   -6.9956   -2.9443   -4.0743 Cl  0  0  0  0  0  0
   -6.2906   -0.3071   -4.0623 C   0  0  0  0  0  0
   -7.5808   -0.0056   -4.4164 O   0  0  0  0  0  0
   -5.3715    0.7291   -3.9014 C   0  0  0  0  0  0
   -4.0492    0.4528   -3.5404 C   0  0  0  0  0  0
   -3.1280    1.5147   -3.5174 N   0  0  0  0  0  0
   -2.9512    2.4516   -2.5579 C   0  0  0  0  0  0
   -2.1591    3.3706   -2.7611 O   0  0  0  0  0  0
   -5.6024    3.0756   -2.1269 H   0  0  0  0  0  0
   -4.6577    4.3824   -1.4266 H   0  0  0  0  0  0
   -5.5536    3.2771   -0.3898 H   0  0  0  0  0  0
   -4.1106    1.4065   -1.0422 H   0  0  0  0  0  0
   -2.3076    3.7324   -0.1452 H   0  0  0  0  0  0
   -3.5213    3.0268    0.8525 H   0  0  0  0  0  0
   -1.6031    2.0316    1.6234 H   0  0  0  0  0  0
   -2.3810    0.7933    0.7422 H   0  0  0  0  0  0
   -0.5983    1.8920   -1.1856 H   0  0  0  0  0  0
    0.2043    2.2436    0.2923 H   0  0  0  0  0  0
   -0.3633   -0.3830    0.7331 H   0  0  0  0  0  0
    2.5685    0.2137   -1.8012 H   0  0  0  0  0  0
    1.8031    1.7176   -1.4247 H   0  0  0  0  0  0
    4.3779    1.7180   -1.1678 H   0  0  0  0  0  0
    3.6048    1.9962    0.3913 H   0  0  0  0  0  0
    4.0342   -1.7366    1.2752 H   0  0  0  0  0  0
    8.5668    1.6945    1.3770 H   0  0  0  0  0  0
    9.7262   -0.3753    0.7081 H   0  0  0  0  0  0
   -2.4768   -0.0214   -1.1595 H   0  0  0  0  0  0
   -1.6949   -2.5364   -4.5091 H   0  0  0  0  0  0
    0.6324   -2.8240   -3.6516 H   0  0  0  0  0  0
   -4.2635   -2.9387   -3.3722 H   0  0  0  0  0  0
   -7.7300    0.9354   -4.5323 H   0  0  0  0  0  0
   -5.6808    1.7489   -4.0813 H   0  0  0  0  0  0
   -2.5137    1.5648   -4.3172 H   0  0  0  0  0  0
  1  2  1  0  0  0
  1 40  1  0  0  0
  1 41  1  0  0  0
  1 42  1  0  0  0
  2  3  1  0  0  0
  2 38  1  0  0  0
  2 43  1  0  0  0
  3  4  1  0  0  0
  3 44  1  0  0  0
  3 45  1  0  0  0
  4  5  1  0  0  0
  4 46  1  0  0  0
  4 47  1  0  0  0
  5  6  1  0  0  0
  5 48  1  0  0  0
  5 49  1  0  0  0
  6  7  1  0  0  0
  6 23  1  0  0  0
  6 50  1  0  0  0
  7  8  1  0  0  0
  7 12  1  0  0  0
  8  9  1  0  0  0
  8 51  1  0  0  0
  8 52  1  0  0  0
  9 10  1  0  0  0
  9 53  1  0  0  0
  9 54  1  0  0  0
 10 11  2  0  0  0
 10 14  1  0  0  0
 11 12  1  0  0  0
 11 55  1  0  0  0
 12 13  2  0  0  0
 14 15  2  0  0  0
 14 21  1  0  0  0
 15 16  1  0  0  0
 15 17  1  0  0  0
 17 18  2  0  0  0
 17 56  1  0  0  0
 18 19  1  0  0  0
 18 57  1  0  0  0
 19 20  1  0  0  0
 19 21  2  0  0  0
 21 22  1  0  0  0
 23 24  1  0  0  0
 23 28  2  0  0  0
 24 25  2  0  0  0
 24 58  1  0  0  0
 25 26  1  0  0  0
 25 29  1  0  0  0
 26 27  2  0  0  0
 26 59  1  0  0  0
 27 28  1  0  0  0
 27 60  1  0  0  0
 29 30  2  0  0  0
 29 36  1  0  0  0
 30 31  1  0  0  0
 30 61  1  0  0  0
 31 32  1  0  0  0
 31 33  2  0  0  0
 33 34  1  0  0  0
 33 35  1  0  0  0
 34 62  1  0  0  0
 35 36  2  0  0  0
 35 63  1  0  0  0
 36 37  1  0  0  0
 37 38  1  0  0  0
 37 64  1  0  0  0
 38 39  2  0  0  0
M  END
> <chembl_id>
CHEMBL4111147

> <chembl_pref_name>
None

> <i_m_ct_stereo_status>
1

> <s_m_source_file>
sdf/actives_sanitized.sdf

> <i_m_source_file_index>
263

> <i_lp_mmshare_version>
49012

> <i_f3d_flags>
0

> <s_epik_input>
bjFbY0hdW2NIXWMoW2NIXWMxMiljM2MoW2NIXWMoW09IXSljKENsKVtjSF0zKVtOSF1DKD1PKVtDQEhdKFtDSDNdKVtDSDJdW0NIMl1bQ0gyXVtDQEBIXTJONFtDSDJdW0NIMl1DKD1bQ0hdQzQ9TyljNWMoRilbY0hdW2NIXWMoQ2wpYzVG

> <s_epik_cmdline>
J2VwaWtfcHl0aG9uJywgJy1waHQnLCAnMC41JywgJy1waCcsICc3LjUnLCAnLW50JywgJy1tYScsICcyMDAnLCAnLWltYWUnLCAnPGluZmlsZS5tYWU+JywgJy1vbWFlJywgJzxvdXRmaWxlLm1hZT4n

> <r_lp_tautomer_probability>
0.999999999997365

> <r_epik_Ionization_Penalty>
  0.1883

> <r_epik_Ionization_Penalty_Charging>
  0.0000

> <r_epik_Ionization_Penalty_Neutral>
  0.1883

> <r_epik_State_Penalty>
  0.1776

> <r_epik_Charging_Adjusted_Penalty>
0.177571442447759

> <i_epik_Tot_Q>
0

> <i_epik_Tot_abs_Q>
0

> <s_lp_Force_Field>
OPLS3e

> <r_lp_Energy>
94.785395

> <b_lp_Chiralities_Consistent>
1

> <s_lp_Variant>
sdf/actives_sanitized.sdf:263-1

$$$$
sdf/actives_sanitized.sdf:264
                    3D
 Schrodinger Suite 2020-1.
 75 79  0  0  1  0            999 V2000
   -1.2991    3.3524   -2.7198 C   0  0  0  0  0  0
   -2.6628    2.6914   -2.4194 C   0  0  2  0  0  0
   -3.7120    3.1131   -3.5071 C   0  0  0  0  0  0
   -4.9711    2.2246   -3.7051 C   0  0  0  0  0  0
   -6.1270    2.4181   -2.6854 C   0  0  0  0  0  0
   -6.9522    1.1277   -2.3526 C   0  0  2  0  0  0
   -8.3962    1.4277   -2.1892 N   0  0  0  0  0  0
   -8.7903    2.5180   -1.2500 C   0  0  0  0  0  0
  -10.2229    2.3332   -0.6821 C   0  0  0  0  0  0
  -11.1628    1.9813   -1.8209 C   0  0  0  0  0  0
  -10.6908    1.2039   -2.8159 C   0  0  0  0  0  0
   -9.3240    0.7420   -2.9329 C   0  0  0  0  0  0
   -9.0588   -0.2247   -3.6492 O   0  0  0  0  0  0
  -12.6142    2.2356   -1.6804 C   0  0  0  0  0  0
  -13.0851    3.5546   -1.5881 C   0  0  0  0  0  0
  -12.2252    4.5996   -1.6434 F   0  0  0  0  0  0
  -14.4488    3.8118   -1.4502 C   0  0  0  0  0  0
  -15.3588    2.7587   -1.4015 C   0  0  0  0  0  0
  -14.9074    1.4429   -1.4897 C   0  0  0  0  0  0
  -16.0491    0.1472   -1.4239 Cl  0  0  0  0  0  0
  -13.5408    1.1795   -1.6271 C   0  0  0  0  0  0
  -13.1166   -0.1058   -1.6956 F   0  0  0  0  0  0
   -6.3432    0.3362   -1.1719 C   0  0  0  0  0  0
   -4.9599    0.2104   -1.0748 C   0  0  0  0  0  0
   -4.3679   -0.3195    0.0660 C   0  0  0  0  0  0
   -5.2030   -0.8465    1.0574 C   0  0  0  0  0  0
   -6.5883   -0.7611    0.8783 C   0  0  0  0  0  0
   -7.1619   -0.1655   -0.2025 N   0  0  0  0  0  0
   -2.8868   -0.2554    0.1768 C   0  0  0  0  0  0
   -2.1514   -1.4350    0.3257 C   0  0  0  0  0  0
   -0.7575   -1.4146    0.3460 C   0  0  0  0  0  0
   -0.0653   -0.2000    0.2245 C   0  0  0  0  0  0
    1.3342   -0.0736    0.2316 N   0  0  0  0  0  0
    2.3140   -1.0560    0.3349 C   0  0  0  0  0  0
    2.1475   -2.2722    0.4476 O   0  0  0  0  0  0
    3.5204   -0.4552    0.2893 O   0  0  0  0  0  0
    4.7207   -1.2151    0.3687 C   0  0  0  0  0  0
    5.9274   -0.2726    0.2768 C   0  0  0  0  0  0
    7.1238   -1.0167    0.3600 O   0  0  0  0  0  0
   -0.7919    0.9860    0.0976 C   0  0  0  0  0  0
   -2.1899    0.9688    0.0684 C   0  0  0  0  0  0
   -2.8744    2.1974    0.0684 N   0  0  0  0  0  0
   -3.0888    3.0401   -0.9678 C   0  0  0  0  0  0
   -3.6349    4.1216   -0.7535 O   0  0  0  0  0  0
   -0.5325    3.0534   -2.0048 H   0  0  0  0  0  0
   -1.3633    4.4415   -2.6916 H   0  0  0  0  0  0
   -0.9335    3.0706   -3.7079 H   0  0  0  0  0  0
   -2.5050    1.6165   -2.5058 H   0  0  0  0  0  0
   -4.0137    4.1534   -3.3719 H   0  0  0  0  0  0
   -3.1996    3.1064   -4.4707 H   0  0  0  0  0  0
   -5.3814    2.4441   -4.6922 H   0  0  0  0  0  0
   -4.6683    1.1821   -3.7907 H   0  0  0  0  0  0
   -5.7581    2.8499   -1.7565 H   0  0  0  0  0  0
   -6.7819    3.1903   -3.0926 H   0  0  0  0  0  0
   -6.8227    0.4626   -3.2080 H   0  0  0  0  0  0
   -8.0244    2.7121   -0.4983 H   0  0  0  0  0  0
   -8.8301    3.4230   -1.8582 H   0  0  0  0  0  0
  -10.2045    1.5073    0.0303 H   0  0  0  0  0  0
  -10.5454    3.2225   -0.1401 H   0  0  0  0  0  0
  -11.3776    0.8631   -3.5781 H   0  0  0  0  0  0
  -14.8020    4.8304   -1.3830 H   0  0  0  0  0  0
  -16.4136    2.9660   -1.2942 H   0  0  0  0  0  0
   -4.3156    0.5782   -1.8464 H   0  0  0  0  0  0
   -4.7918   -1.2873    1.9538 H   0  0  0  0  0  0
   -7.2633   -1.1498    1.6263 H   0  0  0  0  0  0
   -2.6628   -2.3838    0.4024 H   0  0  0  0  0  0
   -0.2461   -2.3576    0.4522 H   0  0  0  0  0  0
    1.6743    0.8727    0.1452 H   0  0  0  0  0  0
    4.7470   -1.7678    1.3096 H   0  0  0  0  0  0
    4.7519   -1.9442   -0.4431 H   0  0  0  0  0  0
    5.9174    0.2791   -0.6641 H   0  0  0  0  0  0
    5.9094    0.4602    1.0843 H   0  0  0  0  0  0
    7.8663   -0.4105    0.3029 H   0  0  0  0  0  0
   -0.2696    1.9311    0.0429 H   0  0  0  0  0  0
   -3.2691    2.4656    0.9582 H   0  0  0  0  0  0
  1  2  1  0  0  0
  1 45  1  0  0  0
  1 46  1  0  0  0
  1 47  1  0  0  0
  2  3  1  0  0  0
  2 43  1  0  0  0
  2 48  1  0  0  0
  3  4  1  0  0  0
  3 49  1  0  0  0
  3 50  1  0  0  0
  4  5  1  0  0  0
  4 51  1  0  0  0
  4 52  1  0  0  0
  5  6  1  0  0  0
  5 53  1  0  0  0
  5 54  1  0  0  0
  6  7  1  0  0  0
  6 23  1  0  0  0
  6 55  1  0  0  0
  7  8  1  0  0  0
  7 12  1  0  0  0
  8  9  1  0  0  0
  8 56  1  0  0  0
  8 57  1  0  0  0
  9 10  1  0  0  0
  9 58  1  0  0  0
  9 59  1  0  0  0
 10 11  2  0  0  0
 10 14  1  0  0  0
 11 12  1  0  0  0
 11 60  1  0  0  0
 12 13  2  0  0  0
 14 15  2  0  0  0
 14 21  1  0  0  0
 15 16  1  0  0  0
 15 17  1  0  0  0
 17 18  2  0  0  0
 17 61  1  0  0  0
 18 19  1  0  0  0
 18 62  1  0  0  0
 19 20  1  0  0  0
 19 21  2  0  0  0
 21 22  1  0  0  0
 23 24  1  0  0  0
 23 28  2  0  0  0
 24 25  2  0  0  0
 24 63  1  0  0  0
 25 26  1  0  0  0
 25 29  1  0  0  0
 26 27  2  0  0  0
 26 64  1  0  0  0
 27 28  1  0  0  0
 27 65  1  0  0  0
 29 30  2  0  0  0
 29 41  1  0  0  0
 30 31  1  0  0  0
 30 66  1  0  0  0
 31 32  2  0  0  0
 31 67  1  0  0  0
 32 33  1  0  0  0
 32 40  1  0  0  0
 33 34  1  0  0  0
 33 68  1  0  0  0
 34 35  2  0  0  0
 34 36  1  0  0  0
 36 37  1  0  0  0
 37 38  1  0  0  0
 37 69  1  0  0  0
 37 70  1  0  0  0
 38 39  1  0  0  0
 38 71  1  0  0  0
 38 72  1  0  0  0
 39 73  1  0  0  0
 40 41  2  0  0  0
 40 74  1  0  0  0
 41 42  1  0  0  0
 42 43  1  0  0  0
 42 75  1  0  0  0
 43 44  2  0  0  0
M  END
> <chembl_id>
CHEMBL4110983

> <chembl_pref_name>
None

> <i_m_ct_stereo_status>
1

> <s_m_source_file>
sdf/actives_sanitized.sdf

> <i_m_source_file_index>
264

> <i_lp_mmshare_version>
49012

> <i_f3d_flags>
0

> <s_epik_input>
W09IXVtDSDJdW0NIMl1PQyg9TylbTkhdYyhbY0hdW2NIXTEpW2NIXWMoYzFjKFtjSF1jMjMpW2NIXVtjSF1uMylbTkhdQyg9TylbQ0BIXShbQ0gzXSlbQ0gyXVtDSDJdW0NIMl1bQ0BASF0yTjRbQ0gyXVtDSDJdQyg9W0NIXUM0PU8pYzVjKEYpW2NIXVtjSF1jKENsKWM1Rg==

> <s_epik_cmdline>
J2VwaWtfcHl0aG9uJywgJy1waHQnLCAnMC41JywgJy1waCcsICc3LjUnLCAnLW50JywgJy1tYScsICcyMDAnLCAnLWltYWUnLCAnPGluZmlsZS5tYWU+JywgJy1vbWFlJywgJzxvdXRmaWxlLm1hZT4n

> <r_lp_tautomer_probability>
1

> <r_epik_Ionization_Penalty>
  0.0001

> <r_epik_Ionization_Penalty_Charging>
  0.0000

> <r_epik_Ionization_Penalty_Neutral>
  0.0001

> <r_epik_State_Penalty>
 -0.0000

> <r_epik_Charging_Adjusted_Penalty>
0

> <i_epik_Tot_Q>
0

> <i_epik_Tot_abs_Q>
0

> <s_epik_Chemistry_Notes>
This compound has an ester and may undergo hydrolysis at high or low pH.

> <s_lp_Force_Field>
OPLS3e

> <r_lp_Energy>
101.109415

> <b_lp_Chiralities_Consistent>
1

> <s_lp_Variant>
sdf/actives_sanitized.sdf:264-1

$$$$
sdf/actives_sanitized.sdf:265
                    3D
 Schrodinger Suite 2020-1.
 65 69  0  0  1  0            999 V2000
   -5.2380    3.0108   -0.8386 C   0  0  0  0  0  0
   -3.9395    2.1762   -0.8925 C   0  0  2  0  0  0
   -3.0114    2.5497    0.3171 C   0  0  0  0  0  0
   -1.9074    1.5427    0.7473 C   0  0  0  0  0  0
   -0.6071    1.5316   -0.1030 C   0  0  0  0  0  0
    0.1017    0.1371   -0.2434 C   0  0  2  0  0  0
    1.5831    0.2256   -0.1647 N   0  0  0  0  0  0
    2.2619   -0.7279    0.7554 C   0  0  0  0  0  0
    3.6661   -0.2275    1.1855 C   0  0  0  0  0  0
    4.4338    0.2032   -0.0535 C   0  0  0  0  0  0
    3.7395    0.7908   -1.0498 C   0  0  0  0  0  0
    2.3011    0.9553   -1.0852 C   0  0  0  0  0  0
    1.7930    1.7377   -1.8893 O   0  0  0  0  0  0
    5.9183    0.2446   -0.0533 C   0  0  0  0  0  0
    6.6314    0.7717    1.0379 C   0  0  0  0  0  0
    5.9847    1.2799    2.1129 F   0  0  0  0  0  0
    8.0258    0.7981    1.0288 C   0  0  0  0  0  0
    8.7302    0.2999   -0.0636 C   0  0  0  0  0  0
    8.0412   -0.2290   -1.1528 C   0  0  0  0  0  0
    8.9290   -0.8489   -2.4997 Cl  0  0  0  0  0  0
    6.6432   -0.2586   -1.1491 C   0  0  0  0  0  0
    5.9919   -0.7941   -2.2104 F   0  0  0  0  0  0
   -0.4472   -0.6994   -1.4252 C   0  0  0  0  0  0
   -1.8018   -0.6338   -1.7384 C   0  0  0  0  0  0
   -2.3011   -1.2124   -2.8991 C   0  0  0  0  0  0
   -1.4250   -1.9737   -3.6811 C   0  0  0  0  0  0
   -0.0868   -2.0721   -3.2828 C   0  0  0  0  0  0
    0.4100   -1.4408   -2.1840 N   0  0  0  0  0  0
   -3.7264   -0.9655   -3.2476 C   0  0  0  0  0  0
   -4.5865   -2.0517   -3.4415 C   0  0  0  0  0  0
   -5.9465   -1.8620   -3.6889 C   0  0  0  0  0  0
   -7.1551   -3.5580   -3.9441 I   0  0  0  0  0  0
   -6.4670   -0.5641   -3.7563 C   0  0  0  0  0  0
   -7.8211   -0.3388   -4.0081 N   0  0  0  0  0  0
   -5.6206    0.5309   -3.5828 C   0  0  0  0  0  0
   -4.2593    0.3420   -3.3253 C   0  0  0  0  0  0
   -3.4266    1.4747   -3.2857 N   0  0  0  0  0  0
   -3.2697    2.3669   -2.2805 C   0  0  0  0  0  0
   -2.5756    3.3646   -2.4709 O   0  0  0  0  0  0
   -5.9254    2.7487   -1.6432 H   0  0  0  0  0  0
   -5.0344    4.0800   -0.9191 H   0  0  0  0  0  0
   -5.7731    2.8478    0.0976 H   0  0  0  0  0  0
   -4.2438    1.1366   -0.7722 H   0  0  0  0  0  0
   -2.5714    3.5383    0.1754 H   0  0  0  0  0  0
   -3.6533    2.6655    1.1921 H   0  0  0  0  0  0
   -1.6134    1.7869    1.7692 H   0  0  0  0  0  0
   -2.3420    0.5488    0.8445 H   0  0  0  0  0  0
   -0.7959    1.9299   -1.0983 H   0  0  0  0  0  0
    0.0760    2.2553    0.3452 H   0  0  0  0  0  0
   -0.2052   -0.4302    0.6361 H   0  0  0  0  0  0
    1.6201   -1.0694    1.5681 H   0  0  0  0  0  0
    2.4576   -1.6158    0.1518 H   0  0  0  0  0  0
    3.5313    0.6268    1.8503 H   0  0  0  0  0  0
    4.2026   -0.9983    1.7399 H   0  0  0  0  0  0
    4.2827    1.1996   -1.8905 H   0  0  0  0  0  0
    8.5632    1.2095    1.8706 H   0  0  0  0  0  0
    9.8103    0.3243   -0.0627 H   0  0  0  0  0  0
   -2.4828   -0.0852   -1.1232 H   0  0  0  0  0  0
   -1.7650   -2.4598   -4.5840 H   0  0  0  0  0  0
    0.6187   -2.6451   -3.8660 H   0  0  0  0  0  0
   -4.2004   -3.0590   -3.3773 H   0  0  0  0  0  0
   -8.1814    0.6008   -3.9259 H   0  0  0  0  0  0
   -8.4491   -1.1298   -4.0108 H   0  0  0  0  0  0
   -6.0163    1.5332   -3.6710 H   0  0  0  0  0  0
   -2.8716    1.6262   -4.1154 H   0  0  0  0  0  0
  1  2  1  0  0  0
  1 40  1  0  0  0
  1 41  1  0  0  0
  1 42  1  0  0  0
  2  3  1  0  0  0
  2 38  1  0  0  0
  2 43  1  0  0  0
  3  4  1  0  0  0
  3 44  1  0  0  0
  3 45  1  0  0  0
  4  5  1  0  0  0
  4 46  1  0  0  0
  4 47  1  0  0  0
  5  6  1  0  0  0
  5 48  1  0  0  0
  5 49  1  0  0  0
  6  7  1  0  0  0
  6 23  1  0  0  0
  6 50  1  0  0  0
  7  8  1  0  0  0
  7 12  1  0  0  0
  8  9  1  0  0  0
  8 51  1  0  0  0
  8 52  1  0  0  0
  9 10  1  0  0  0
  9 53  1  0  0  0
  9 54  1  0  0  0
 10 11  2  0  0  0
 10 14  1  0  0  0
 11 12  1  0  0  0
 11 55  1  0  0  0
 12 13  2  0  0  0
 14 15  2  0  0  0
 14 21  1  0  0  0
 15 16  1  0  0  0
 15 17  1  0  0  0
 17 18  2  0  0  0
 17 56  1  0  0  0
 18 19  1  0  0  0
 18 57  1  0  0  0
 19 20  1  0  0  0
 19 21  2  0  0  0
 21 22  1  0  0  0
 23 24  1  0  0  0
 23 28  2  0  0  0
 24 25  2  0  0  0
 24 58  1  0  0  0
 25 26  1  0  0  0
 25 29  1  0  0  0
 26 27  2  0  0  0
 26 59  1  0  0  0
 27 28  1  0  0  0
 27 60  1  0  0  0
 29 30  2  0  0  0
 29 36  1  0  0  0
 30 31  1  0  0  0
 30 61  1  0  0  0
 31 32  1  0  0  0
 31 33  2  0  0  0
 33 34  1  0  0  0
 33 35  1  0  0  0
 34 62  1  0  0  0
 34 63  1  0  0  0
 35 36  2  0  0  0
 35 64  1  0  0  0
 36 37  1  0  0  0
 37 38  1  0  0  0
 37 65  1  0  0  0
 38 39  2  0  0  0
M  END
> <chembl_id>
CHEMBL4109315

> <chembl_pref_name>
None

> <i_m_ct_stereo_status>
1

> <s_m_source_file>
sdf/actives_sanitized.sdf

> <i_m_source_file_index>
265

> <i_lp_mmshare_version>
49012

> <i_f3d_flags>
0

> <s_epik_input>
bjFbY0hdW2NIXWMoW2NIXWMxMiljM2MoW2NIXWMoW05IMl0pYyhJKVtjSF0zKVtOSF1DKD1PKVtDQEhdKFtDSDNdKVtDSDJdW0NIMl1bQ0gyXVtDQEBIXTJONFtDSDJdW0NIMl1DKD1bQ0hdQzQ9TyljNWMoRilbY0hdW2NIXWMoQ2wpYzVG

> <s_epik_cmdline>
J2VwaWtfcHl0aG9uJywgJy1waHQnLCAnMC41JywgJy1waCcsICc3LjUnLCAnLW50JywgJy1tYScsICcyMDAnLCAnLWltYWUnLCAnPGluZmlsZS5tYWU+JywgJy1vbWFlJywgJzxvdXRmaWxlLm1hZT4n

> <r_lp_tautomer_probability>
1

> <r_epik_Ionization_Penalty>
  0.0001

> <r_epik_Ionization_Penalty_Charging>
  0.0000

> <r_epik_Ionization_Penalty_Neutral>
  0.0001

> <r_epik_State_Penalty>
 -0.0000

> <r_epik_Charging_Adjusted_Penalty>
0

> <i_epik_Tot_Q>
0

> <i_epik_Tot_abs_Q>
0

> <s_lp_Force_Field>
OPLS3e

> <r_lp_Energy>
92.208611

> <b_lp_Chiralities_Consistent>
1

> <s_lp_Variant>
sdf/actives_sanitized.sdf:265-1

$$$$
sdf/actives_sanitized.sdf:266
                    3D
 Schrodinger Suite 2020-1.
 69 73  0  0  1  0            999 V2000
  -11.0164   -4.5026   -2.6688 C   0  0  0  0  0  0
   -9.6729   -4.5742   -2.2111 O   0  0  0  0  0  0
   -8.7341   -3.7324   -2.6886 C   0  0  0  0  0  0
   -8.9484   -2.8590   -3.5319 O   0  0  0  0  0  0
   -7.5220   -4.0358   -2.0756 N   0  0  0  0  0  0
   -6.2682   -3.4177   -2.2211 C   0  0  0  0  0  0
   -5.1887   -4.0513   -1.6044 C   0  0  0  0  0  0
   -3.9065   -3.5148   -1.6968 C   0  0  0  0  0  0
   -3.6688   -2.3317   -2.4042 C   0  0  0  0  0  0
   -4.7644   -1.6700   -3.0013 C   0  0  0  0  0  0
   -4.6360   -0.4802   -3.7368 N   0  0  0  0  0  0
   -4.3816    0.7646   -3.2718 C   0  0  0  0  0  0
   -4.3674    1.7077   -4.0620 O   0  0  0  0  0  0
   -4.1049    1.0512   -1.7714 C   0  0  2  0  0  0
   -5.2561    1.8638   -1.1443 C   0  0  0  0  0  0
   -2.7293    1.7587   -1.5898 C   0  0  0  0  0  0
   -2.1447    1.7071   -0.1530 C   0  0  0  0  0  0
   -0.5949    1.6126   -0.0855 C   0  0  0  0  0  0
    0.0126    0.1686   -0.1376 C   0  0  2  0  0  0
    1.4968    0.1303    0.0052 N   0  0  0  0  0  0
    2.2283    1.1936   -0.5524 N   0  0  0  0  0  0
    3.5129    1.1579   -0.5934 C   0  0  0  0  0  0
    4.2192    0.0308   -0.0349 C   0  0  0  0  0  0
    3.5107   -0.9736    0.5384 C   0  0  0  0  0  0
    2.0553   -1.0168    0.5494 C   0  0  0  0  0  0
    1.4389   -2.0016    0.9615 O   0  0  0  0  0  0
    5.7009   -0.0036   -0.0387 C   0  0  0  0  0  0
    6.3927    0.5451    1.0544 C   0  0  0  0  0  0
    5.7053    1.0947    2.0855 F   0  0  0  0  0  0
    7.7893    0.5311    1.0928 C   0  0  0  0  0  0
    8.6381    1.2069    2.4375 Cl  0  0  0  0  0  0
    8.5090   -0.0307    0.0414 C   0  0  0  0  0  0
    7.8387   -0.5800   -1.0483 C   0  0  0  0  0  0
    6.4410   -0.5732   -1.0995 C   0  0  0  0  0  0
    5.7976   -1.1681   -2.2699 C   0  0  0  0  0  0
    5.2873   -1.6387   -3.1958 N   0  0  0  0  0  0
   -0.4951   -0.6065   -1.3611 C   0  0  0  0  0  0
   -1.6969   -1.3138   -1.2809 C   0  0  0  0  0  0
   -2.2880   -1.7904   -2.4536 C   0  0  0  0  0  0
   -1.5860   -1.6595   -3.6581 C   0  0  0  0  0  0
   -0.3416   -1.0260   -3.6469 C   0  0  0  0  0  0
    0.2000   -0.4856   -2.5258 N   0  0  0  0  0  0
   -6.0471   -2.2220   -2.9215 C   0  0  0  0  0  0
  -11.6252   -5.2395   -2.1451 H   0  0  0  0  0  0
  -11.0770   -4.7099   -3.7384 H   0  0  0  0  0  0
  -11.4436   -3.5161   -2.4819 H   0  0  0  0  0  0
   -7.5406   -4.8146   -1.4335 H   0  0  0  0  0  0
   -5.3340   -4.9690   -1.0522 H   0  0  0  0  0  0
   -3.0876   -4.0288   -1.2138 H   0  0  0  0  0  0
   -4.8765   -0.5534   -4.7146 H   0  0  0  0  0  0
   -4.0710    0.1061   -1.2342 H   0  0  0  0  0  0
   -6.2127    1.3510   -1.2561 H   0  0  0  0  0  0
   -5.3559    2.8478   -1.6051 H   0  0  0  0  0  0
   -5.0960    2.0143   -0.0763 H   0  0  0  0  0  0
   -2.0102    1.3228   -2.2824 H   0  0  0  0  0  0
   -2.7989    2.7994   -1.9116 H   0  0  0  0  0  0
   -2.4689    2.6061    0.3732 H   0  0  0  0  0  0
   -2.5766    0.8822    0.4148 H   0  0  0  0  0  0
   -0.1695    2.2409   -0.8698 H   0  0  0  0  0  0
   -0.2771    2.0694    0.8532 H   0  0  0  0  0  0
   -0.4100   -0.3270    0.7410 H   0  0  0  0  0  0
    4.0338    1.9956   -1.0484 H   0  0  0  0  0  0
    4.0346   -1.8097    0.9803 H   0  0  0  0  0  0
    9.5890   -0.0432    0.0674 H   0  0  0  0  0  0
    8.4204   -1.0111   -1.8518 H   0  0  0  0  0  0
   -2.2289   -1.3782   -0.3425 H   0  0  0  0  0  0
   -2.0051   -2.0229   -4.5850 H   0  0  0  0  0  0
    0.2241   -0.9075   -4.5592 H   0  0  0  0  0  0
   -6.8597   -1.6957   -3.3972 H   0  0  0  0  0  0
  1  2  1  0  0  0
  1 44  1  0  0  0
  1 45  1  0  0  0
  1 46  1  0  0  0
  2  3  1  0  0  0
  3  4  2  0  0  0
  3  5  1  0  0  0
  5  6  1  0  0  0
  5 47  1  0  0  0
  6  7  2  0  0  0
  6 43  1  0  0  0
  7  8  1  0  0  0
  7 48  1  0  0  0
  8  9  2  0  0  0
  8 49  1  0  0  0
  9 10  1  0  0  0
  9 39  1  0  0  0
 10 11  1  0  0  0
 10 43  2  0  0  0
 11 12  1  0  0  0
 11 50  1  0  0  0
 12 13  2  0  0  0
 12 14  1  0  0  0
 14 15  1  0  0  0
 14 16  1  0  0  0
 14 51  1  0  0  0
 15 52  1  0  0  0
 15 53  1  0  0  0
 15 54  1  0  0  0
 16 17  1  0  0  0
 16 55  1  0  0  0
 16 56  1  0  0  0
 17 18  1  0  0  0
 17 57  1  0  0  0
 17 58  1  0  0  0
 18 19  1  0  0  0
 18 59  1  0  0  0
 18 60  1  0  0  0
 19 20  1  0  0  0
 19 37  1  0  0  0
 19 61  1  0  0  0
 20 21  1  0  0  0
 20 25  1  0  0  0
 21 22  2  0  0  0
 22 23  1  0  0  0
 22 62  1  0  0  0
 23 24  2  0  0  0
 23 27  1  0  0  0
 24 25  1  0  0  0
 24 63  1  0  0  0
 25 26  2  0  0  0
 27 28  2  0  0  0
 27 34  1  0  0  0
 28 29  1  0  0  0
 28 30  1  0  0  0
 30 31  1  0  0  0
 30 32  2  0  0  0
 32 33  1  0  0  0
 32 64  1  0  0  0
 33 34  2  0  0  0
 33 65  1  0  0  0
 34 35  1  0  0  0
 35 36  3  0  0  0
 37 38  1  0  0  0
 37 42  2  0  0  0
 38 39  2  0  0  0
 38 66  1  0  0  0
 39 40  1  0  0  0
 40 41  2  0  0  0
 40 67  1  0  0  0
 41 42  1  0  0  0
 41 68  1  0  0  0
 43 69  1  0  0  0
M  END
> <chembl_id>
CHEMBL4109580

> <chembl_pref_name>
None

> <i_m_ct_stereo_status>
1

> <s_m_source_file>
sdf/actives_sanitized.sdf

> <i_m_source_file_index>
266

> <i_lp_mmshare_version>
49012

> <i_f3d_flags>
0

> <s_epik_input>
W0NIM11PQyg9TylbTkhdYyhbY0hdW2NIXTEpW2NIXWMoYzEyKVtOSF1DKD1PKVtDQEhdKFtDSDNdKVtDSDJdW0NIMl1bQ0gyXVtDQEBIXShjM1tjSF1jMltjSF1bY0hdbjMpbjRuW2NIXWMoW2NIXWM0PU8pLWM1YyhGKWMoQ2wpW2NIXVtjSF1jNUMjTg==

> <s_epik_cmdline>
J2VwaWtfcHl0aG9uJywgJy1waHQnLCAnMC41JywgJy1waCcsICc3LjUnLCAnLW50JywgJy1tYScsICcyMDAnLCAnLWltYWUnLCAnPGluZmlsZS5tYWU+JywgJy1vbWFlJywgJzxvdXRmaWxlLm1hZT4n

> <r_lp_tautomer_probability>
1

> <r_epik_Ionization_Penalty>
  0.0073

> <r_epik_Ionization_Penalty_Charging>
  0.0000

> <r_epik_Ionization_Penalty_Neutral>
  0.0073

> <r_epik_State_Penalty>
 -0.0000

> <r_epik_Charging_Adjusted_Penalty>
1.20687305880223e-08

> <i_epik_Tot_Q>
0

> <i_epik_Tot_abs_Q>
0

> <s_epik_Chemistry_Notes>
This compound has an ester and may undergo hydrolysis at high or low pH.

> <s_lp_Force_Field>
OPLS3e

> <r_lp_Energy>
97.304458

> <b_lp_Chiralities_Consistent>
1

> <s_lp_Variant>
sdf/actives_sanitized.sdf:266-1

$$$$
sdf/actives_sanitized.sdf:267
                    3D
 Schrodinger Suite 2020-1.
 85 89  0  0  1  0            999 V2000
   -1.2979    3.2266   -2.9896 C   0  0  0  0  0  0
   -2.6934    2.6652   -2.6383 C   0  0  2  0  0  0
   -3.7495    3.1470   -3.6959 C   0  0  0  0  0  0
   -5.0829    2.3574   -3.8334 C   0  0  0  0  0  0
   -6.1768    2.6501   -2.7694 C   0  0  0  0  0  0
   -7.0978    1.4372   -2.3846 C   0  0  2  0  0  0
   -8.5154    1.8311   -2.1757 N   0  0  0  0  0  0
   -9.5468    1.0202   -2.8797 C   0  0  0  0  0  0
  -10.8818    1.7920   -3.0521 C   0  0  0  0  0  0
  -11.2715    2.4015   -1.7155 C   0  0  0  0  0  0
  -10.2828    2.8529   -0.9174 C   0  0  0  0  0  0
   -8.8658    2.7167   -1.1815 C   0  0  0  0  0  0
   -8.0564    3.3965   -0.5491 O   0  0  0  0  0  0
  -12.6816    2.7587   -1.4235 C   0  0  0  0  0  0
  -13.2581    2.4117   -0.1893 C   0  0  0  0  0  0
  -12.5418    1.7402    0.7436 F   0  0  0  0  0  0
  -14.5835    2.7396    0.0934 C   0  0  0  0  0  0
  -15.3541    3.4147   -0.8490 C   0  0  0  0  0  0
  -14.8004    3.7654   -2.0786 C   0  0  0  0  0  0
  -15.7698    4.6068   -3.2356 Cl  0  0  0  0  0  0
  -13.4710    3.4400   -2.3671 C   0  0  0  0  0  0
  -12.9491    3.8064   -3.5624 F   0  0  0  0  0  0
   -6.4946    0.5483   -1.2685 C   0  0  0  0  0  0
   -5.1151    0.3793   -1.1948 C   0  0  0  0  0  0
   -4.5223   -0.2438   -0.1032 C   0  0  0  0  0  0
   -5.3627   -0.8104    0.8623 C   0  0  0  0  0  0
   -6.7472   -0.6797    0.7049 C   0  0  0  0  0  0
   -7.3164   -0.0035   -0.3299 N   0  0  0  0  0  0
   -3.0360   -0.2522   -0.0187 C   0  0  0  0  0  0
   -2.3632   -1.4697    0.1267 C   0  0  0  0  0  0
   -0.9709   -1.5250    0.1449 C   0  0  0  0  0  0
   -0.2135   -0.3496    0.0300 C   0  0  0  0  0  0
    1.1933   -0.3074    0.0408 N   0  0  0  0  0  0
    2.0623   -1.2152    0.5364 C   0  0  0  0  0  0
    1.7355   -2.2469    1.1268 O   0  0  0  0  0  0
    3.5497   -0.8483    0.3795 C   0  0  0  0  0  0
    4.5515   -2.0124    0.2907 C   0  0  0  0  0  0
    4.3032   -3.0364   -0.3493 O   0  0  0  0  0  0
    5.7110   -1.7422    0.9564 O   0  0  0  0  0  0
    6.8360   -2.6342    1.0620 C   0  0  0  0  0  0
    7.4589   -2.9204   -0.3269 C   0  0  0  0  0  0
    6.4478   -3.9524    1.7776 C   0  0  0  0  0  0
    7.8533   -1.8659    1.9304 C   0  0  0  0  0  0
   -0.8741    0.8716   -0.1212 C   0  0  0  0  0  0
   -2.2716    0.9317   -0.1429 C   0  0  0  0  0  0
   -2.8794    2.2005   -0.1416 N   0  0  0  0  0  0
   -3.0459    3.0553   -1.1772 C   0  0  0  0  0  0
   -3.4916    4.1805   -0.9564 O   0  0  0  0  0  0
   -0.5322    2.8820   -2.2938 H   0  0  0  0  0  0
   -1.2853    4.3178   -2.9737 H   0  0  0  0  0  0
   -0.9841    2.9086   -3.9844 H   0  0  0  0  0  0
   -2.6103    1.5815   -2.7186 H   0  0  0  0  0  0
   -3.9649    4.2095   -3.5686 H   0  0  0  0  0  0
   -3.2747    3.0864   -4.6768 H   0  0  0  0  0  0
   -5.5150    2.5998   -4.8055 H   0  0  0  0  0  0
   -4.8674    1.2930   -3.9166 H   0  0  0  0  0  0
   -5.7306    3.0515   -1.8616 H   0  0  0  0  0  0
   -6.7845    3.4726   -3.1510 H   0  0  0  0  0  0
   -7.0975    0.7870   -3.2601 H   0  0  0  0  0  0
   -9.1690    0.5382   -3.7818 H   0  0  0  0  0  0
   -9.7842    0.2041   -2.1950 H   0  0  0  0  0  0
  -10.7212    2.5838   -3.7849 H   0  0  0  0  0  0
  -11.6656    1.1384   -3.4365 H   0  0  0  0  0  0
  -10.5472    3.3840   -0.0135 H   0  0  0  0  0  0
  -15.0162    2.4667    1.0447 H   0  0  0  0  0  0
  -16.3805    3.6651   -0.6234 H   0  0  0  0  0  0
   -4.4711    0.7761   -1.9493 H   0  0  0  0  0  0
   -4.9551   -1.3226    1.7217 H   0  0  0  0  0  0
   -7.4248   -1.0994    1.4335 H   0  0  0  0  0  0
   -2.9235   -2.3905    0.2047 H   0  0  0  0  0  0
   -0.5049   -2.4940    0.2331 H   0  0  0  0  0  0
    1.5924    0.5465   -0.3197 H   0  0  0  0  0  0
    3.6904   -0.2432   -0.5175 H   0  0  0  0  0  0
    3.8112   -0.2095    1.2247 H   0  0  0  0  0  0
    8.3856   -3.4887   -0.2371 H   0  0  0  0  0  0
    7.6927   -1.9945   -0.8537 H   0  0  0  0  0  0
    6.7912   -3.4955   -0.9680 H   0  0  0  0  0  0
    5.7583   -4.5558    1.1874 H   0  0  0  0  0  0
    5.9638   -3.7553    2.7351 H   0  0  0  0  0  0
    7.3247   -4.5699    1.9753 H   0  0  0  0  0  0
    8.7639   -2.4446    2.0903 H   0  0  0  0  0  0
    7.4411   -1.6268    2.9119 H   0  0  0  0  0  0
    8.1424   -0.9214    1.4670 H   0  0  0  0  0  0
   -0.3009    1.7862   -0.1862 H   0  0  0  0  0  0
   -3.2390    2.5007    0.7530 H   0  0  0  0  0  0
  1  2  1  0  0  0
  1 49  1  0  0  0
  1 50  1  0  0  0
  1 51  1  0  0  0
  2  3  1  0  0  0
  2 47  1  0  0  0
  2 52  1  0  0  0
  3  4  1  0  0  0
  3 53  1  0  0  0
  3 54  1  0  0  0
  4  5  1  0  0  0
  4 55  1  0  0  0
  4 56  1  0  0  0
  5  6  1  0  0  0
  5 57  1  0  0  0
  5 58  1  0  0  0
  6  7  1  0  0  0
  6 23  1  0  0  0
  6 59  1  0  0  0
  7  8  1  0  0  0
  7 12  1  0  0  0
  8  9  1  0  0  0
  8 60  1  0  0  0
  8 61  1  0  0  0
  9 10  1  0  0  0
  9 62  1  0  0  0
  9 63  1  0  0  0
 10 11  2  0  0  0
 10 14  1  0  0  0
 11 12  1  0  0  0
 11 64  1  0  0  0
 12 13  2  0  0  0
 14 15  2  0  0  0
 14 21  1  0  0  0
 15 16  1  0  0  0
 15 17  1  0  0  0
 17 18  2  0  0  0
 17 65  1  0  0  0
 18 19  1  0  0  0
 18 66  1  0  0  0
 19 20  1  0  0  0
 19 21  2  0  0  0
 21 22  1  0  0  0
 23 24  1  0  0  0
 23 28  2  0  0  0
 24 25  2  0  0  0
 24 67  1  0  0  0
 25 26  1  0  0  0
 25 29  1  0  0  0
 26 27  2  0  0  0
 26 68  1  0  0  0
 27 28  1  0  0  0
 27 69  1  0  0  0
 29 30  2  0  0  0
 29 45  1  0  0  0
 30 31  1  0  0  0
 30 70  1  0  0  0
 31 32  2  0  0  0
 31 71  1  0  0  0
 32 33  1  0  0  0
 32 44  1  0  0  0
 33 34  1  0  0  0
 33 72  1  0  0  0
 34 35  2  0  0  0
 34 36  1  0  0  0
 36 37  1  0  0  0
 36 73  1  0  0  0
 36 74  1  0  0  0
 37 38  2  0  0  0
 37 39  1  0  0  0
 39 40  1  0  0  0
 40 41  1  0  0  0
 40 42  1  0  0  0
 40 43  1  0  0  0
 41 75  1  0  0  0
 41 76  1  0  0  0
 41 77  1  0  0  0
 42 78  1  0  0  0
 42 79  1  0  0  0
 42 80  1  0  0  0
 43 81  1  0  0  0
 43 82  1  0  0  0
 43 83  1  0  0  0
 44 45  2  0  0  0
 44 84  1  0  0  0
 45 46  1  0  0  0
 46 47  1  0  0  0
 46 85  1  0  0  0
 47 48  2  0  0  0
M  END
> <chembl_id>
CHEMBL4113372

> <chembl_pref_name>
None

> <i_m_ct_stereo_status>
1

> <s_m_source_file>
sdf/actives_sanitized.sdf

> <i_m_source_file_index>
267

> <i_lp_mmshare_version>
49012

> <i_f3d_flags>
0

> <s_epik_input>
W0NIM11DKFtDSDNdKShbQ0gzXSlPQyg9TylbQ0gyXUMoPU8pW05IXWMoW2NIXVtjSF0xKVtjSF1jKGMxYyhbY0hdYzIzKVtjSF1bY0hdbjMpW05IXUMoPU8pW0NASF0oW0NIM10pW0NIMl1bQ0gyXVtDSDJdW0NAQEhdMk40W0NIMl1bQ0gyXUMoPVtDSF1DND1PKWM1YyhGKVtjSF1bY0hdYyhDbCljNUY=

> <s_epik_cmdline>
J2VwaWtfcHl0aG9uJywgJy1waHQnLCAnMC41JywgJy1waCcsICc3LjUnLCAnLW50JywgJy1tYScsICcyMDAnLCAnLWltYWUnLCAnPGluZmlsZS5tYWU+JywgJy1vbWFlJywgJzxvdXRmaWxlLm1hZT4n

> <r_lp_tautomer_probability>
1

> <r_epik_Ionization_Penalty>
  0.0007

> <r_epik_Ionization_Penalty_Charging>
  0.0000

> <r_epik_Ionization_Penalty_Neutral>
  0.0007

> <r_epik_State_Penalty>
 -0.0000

> <r_epik_Charging_Adjusted_Penalty>
0

> <i_epik_Tot_Q>
0

> <i_epik_Tot_abs_Q>
0

> <s_epik_Chemistry_Notes>
This compound has an ester and may undergo hydrolysis at high or low pH.

> <s_lp_Force_Field>
OPLS3e

> <r_lp_Energy>
94.603051

> <b_lp_Chiralities_Consistent>
1

> <s_lp_Variant>
sdf/actives_sanitized.sdf:267-1

$$$$
sdf/actives_sanitized.sdf:268
                    3D
 Schrodinger Suite 2020-1.
 71 76  0  0  1  0            999 V2000
   -4.9644    3.1671   -0.9803 C   0  0  0  0  0  0
   -3.7316    2.2363   -0.9540 C   0  0  2  0  0  0
   -2.7458    2.6831    0.1815 C   0  0  0  0  0  0
   -1.7170    1.6483    0.7148 C   0  0  0  0  0  0
   -0.4433    1.4238   -0.1460 C   0  0  0  0  0  0
    0.1406   -0.0322   -0.1130 C   0  0  2  0  0  0
    1.6293   -0.0388   -0.0869 N   0  0  0  0  0  0
    2.3902    0.7115   -0.9661 C   0  0  0  0  0  0
    3.7357    0.7623   -0.9850 C   0  0  0  0  0  0
    4.4443   -0.0332    0.0052 C   0  0  0  0  0  0
    3.7109   -0.7927    0.8578 C   0  0  0  0  0  0
    2.2490   -0.8807    0.8227 C   0  0  0  0  0  0
    1.6649   -1.6767    1.5608 O   0  0  0  0  0  0
    5.9138    0.0051    0.0879 C   0  0  0  0  0  0
    6.6904   -0.9021   -0.6461 C   0  0  0  0  0  0
    6.1009   -1.8257   -1.4417 F   0  0  0  0  0  0
    8.0825   -0.8640   -0.5645 C   0  0  0  0  0  0
    8.7107    0.0790    0.2466 C   0  0  0  0  0  0
    7.9483    0.9873    0.9806 C   0  0  0  0  0  0
    8.7418    2.1505    1.9820 Cl  0  0  0  0  0  0
    6.5525    0.9516    0.9024 C   0  0  0  0  0  0
    5.8178    1.8369    1.6189 F   0  0  0  0  0  0
   -0.4746   -0.9257   -1.2152 C   0  0  0  0  0  0
   -1.8379   -0.8364   -1.4843 C   0  0  0  0  0  0
   -2.3901   -1.4679   -2.5934 C   0  0  0  0  0  0
   -1.5670   -2.3065   -3.3526 C   0  0  0  0  0  0
   -0.2187   -2.4198   -2.9950 C   0  0  0  0  0  0
    0.3353   -1.7316   -1.9599 N   0  0  0  0  0  0
   -3.8081   -1.1733   -2.9277 C   0  0  0  0  0  0
   -4.7420   -2.2128   -2.9808 C   0  0  0  0  0  0
   -6.0940   -1.9474   -3.1956 C   0  0  0  0  0  0
   -6.5437   -0.6360   -3.3604 C   0  0  0  0  0  0
   -7.9167   -0.4233   -3.5695 N   0  0  0  0  0  0
   -8.7415    0.6772   -3.2875 C   0  0  0  0  0  0
  -10.0034    0.6041   -3.7873 N   0  0  0  0  0  0
  -10.8357    1.6424   -3.5096 C   0  0  0  0  0  0
  -10.4344    2.7390   -2.7445 C   0  0  0  0  0  0
   -9.1228    2.7246   -2.2671 C   0  0  0  0  0  0
   -8.2661    1.7022   -2.5256 N   0  0  0  0  0  0
   -5.6120    0.4081   -3.3537 C   0  0  0  0  0  0
   -4.2559    0.1512   -3.1312 C   0  0  0  0  0  0
   -3.3444    1.2149   -3.2519 N   0  0  0  0  0  0
   -3.0871    2.2036   -2.3657 C   0  0  0  0  0  0
   -2.3196    3.1093   -2.6888 O   0  0  0  0  0  0
   -5.6904    2.8621   -1.7338 H   0  0  0  0  0  0
   -4.6871    4.2002   -1.1966 H   0  0  0  0  0  0
   -5.4853    3.1601   -0.0221 H   0  0  0  0  0  0
   -4.1050    1.2444   -0.7002 H   0  0  0  0  0  0
   -2.2316    3.6064   -0.0918 H   0  0  0  0  0  0
   -3.3518    2.9602    1.0458 H   0  0  0  0  0  0
   -1.3794    1.9893    1.6949 H   0  0  0  0  0  0
   -2.2295    0.7146    0.9412 H   0  0  0  0  0  0
   -0.6191    1.7108   -1.1813 H   0  0  0  0  0  0
    0.3043    2.1391    0.2013 H   0  0  0  0  0  0
   -0.2309   -0.4704    0.8148 H   0  0  0  0  0  0
    1.7842    1.2376   -1.6899 H   0  0  0  0  0  0
    4.2640    1.3549   -1.7177 H   0  0  0  0  0  0
    4.2208   -1.3833    1.6058 H   0  0  0  0  0  0
    8.6766   -1.5663   -1.1306 H   0  0  0  0  0  0
    9.7892    0.1028    0.3048 H   0  0  0  0  0  0
   -2.4806   -0.2237   -0.8854 H   0  0  0  0  0  0
   -1.9534   -2.8342   -4.2125 H   0  0  0  0  0  0
    0.4493   -3.0493   -3.5640 H   0  0  0  0  0  0
   -4.4244   -3.2342   -2.8274 H   0  0  0  0  0  0
   -6.7940   -2.7704   -3.2166 H   0  0  0  0  0  0
   -8.3885   -1.1790   -4.0449 H   0  0  0  0  0  0
  -11.8369    1.5830   -3.9105 H   0  0  0  0  0  0
  -11.1063    3.5574   -2.5312 H   0  0  0  0  0  0
   -8.7414    3.5377   -1.6669 H   0  0  0  0  0  0
   -5.9290    1.4208   -3.5530 H   0  0  0  0  0  0
   -2.8036    1.2193   -4.1043 H   0  0  0  0  0  0
  1  2  1  0  0  0
  1 45  1  0  0  0
  1 46  1  0  0  0
  1 47  1  0  0  0
  2  3  1  0  0  0
  2 43  1  0  0  0
  2 48  1  0  0  0
  3  4  1  0  0  0
  3 49  1  0  0  0
  3 50  1  0  0  0
  4  5  1  0  0  0
  4 51  1  0  0  0
  4 52  1  0  0  0
  5  6  1  0  0  0
  5 53  1  0  0  0
  5 54  1  0  0  0
  6  7  1  0  0  0
  6 23  1  0  0  0
  6 55  1  0  0  0
  7  8  1  0  0  0
  7 12  1  0  0  0
  8  9  2  0  0  0
  8 56  1  0  0  0
  9 10  1  0  0  0
  9 57  1  0  0  0
 10 11  2  0  0  0
 10 14  1  0  0  0
 11 12  1  0  0  0
 11 58  1  0  0  0
 12 13  2  0  0  0
 14 15  2  0  0  0
 14 21  1  0  0  0
 15 16  1  0  0  0
 15 17  1  0  0  0
 17 18  2  0  0  0
 17 59  1  0  0  0
 18 19  1  0  0  0
 18 60  1  0  0  0
 19 20  1  0  0  0
 19 21  2  0  0  0
 21 22  1  0  0  0
 23 24  1  0  0  0
 23 28  2  0  0  0
 24 25  2  0  0  0
 24 61  1  0  0  0
 25 26  1  0  0  0
 25 29  1  0  0  0
 26 27  2  0  0  0
 26 62  1  0  0  0
 27 28  1  0  0  0
 27 63  1  0  0  0
 29 30  2  0  0  0
 29 41  1  0  0  0
 30 31  1  0  0  0
 30 64  1  0  0  0
 31 32  2  0  0  0
 31 65  1  0  0  0
 32 33  1  0  0  0
 32 40  1  0  0  0
 33 34  1  0  0  0
 33 66  1  0  0  0
 34 35  2  0  0  0
 34 39  1  0  0  0
 35 36  1  0  0  0
 36 37  2  0  0  0
 36 67  1  0  0  0
 37 38  1  0  0  0
 37 68  1  0  0  0
 38 39  2  0  0  0
 38 69  1  0  0  0
 40 41  2  0  0  0
 40 70  1  0  0  0
 41 42  1  0  0  0
 42 43  1  0  0  0
 42 71  1  0  0  0
 43 44  2  0  0  0
M  END
> <chembl_id>
CHEMBL4111142

> <chembl_pref_name>
None

> <i_m_ct_stereo_status>
1

> <s_m_source_file>
sdf/actives_sanitized.sdf

> <i_m_source_file_index>
268

> <i_lp_mmshare_version>
49012

> <i_f3d_flags>
0

> <s_epik_input>
bjFbY0hdW2NIXVtjSF1uYzFbTkhdYyhbY0hdW2NIXTIpW2NIXWMoYzJjKFtjSF1jMzQpW2NIXVtjSF1uNClbTkhdQyg9TylbQ0BIXShbQ0gzXSlbQ0gyXVtDSDJdW0NIMl1bQ0BASF0zbjVbY0hdW2NIXWMoW2NIXWM1PU8pLWM2YyhGKVtjSF1bY0hdYyhDbCljNkY=

> <s_epik_cmdline>
J2VwaWtfcHl0aG9uJywgJy1waHQnLCAnMC41JywgJy1waCcsICc3LjUnLCAnLW50JywgJy1tYScsICcyMDAnLCAnLWltYWUnLCAnPGluZmlsZS5tYWU+JywgJy1vbWFlJywgJzxvdXRmaWxlLm1hZT4n

> <r_lp_tautomer_probability>
1

> <r_epik_Ionization_Penalty>
  0.0073

> <r_epik_Ionization_Penalty_Charging>
  0.0000

> <r_epik_Ionization_Penalty_Neutral>
  0.0073

> <r_epik_State_Penalty>
 -0.0000

> <r_epik_Charging_Adjusted_Penalty>
3.64357097057384e-07

> <i_epik_Tot_Q>
0

> <i_epik_Tot_abs_Q>
0

> <s_lp_Force_Field>
OPLS3e

> <r_lp_Energy>
92.774881

> <b_lp_Chiralities_Consistent>
1

> <s_lp_Variant>
sdf/actives_sanitized.sdf:268-1

$$$$
sdf/actives_sanitized.sdf:269
                    3D
 Schrodinger Suite 2020-1.
 64 68  0  0  1  0            999 V2000
   -4.8680    3.3587   -0.9148 C   0  0  0  0  0  0
   -3.6929    2.3563   -0.9075 C   0  0  2  0  0  0
   -2.8151    2.5650    0.3766 C   0  0  0  0  0  0
   -1.8855    1.4059    0.8348 C   0  0  0  0  0  0
   -0.5325    1.2693    0.0836 C   0  0  0  0  0  0
    0.0264   -0.1893   -0.0502 C   0  0  2  0  0  0
    1.5083   -0.1805   -0.0330 N   0  0  0  0  0  0
    2.2200    0.6225   -1.0694 C   0  0  0  0  0  0
    3.6556    0.0982   -1.3402 C   0  0  0  0  0  0
    4.3549   -0.1242   -0.0093 C   0  0  0  0  0  0
    3.6152   -0.5854    1.0199 C   0  0  0  0  0  0
    2.1839   -0.8008    0.9884 C   0  0  0  0  0  0
    1.6514   -1.5276    1.8285 O   0  0  0  0  0  0
    5.8357   -0.1243    0.0826 C   0  0  0  0  0  0
    6.6212   -0.8189   -0.8533 C   0  0  0  0  0  0
    6.0473   -1.5246   -1.8559 F   0  0  0  0  0  0
    8.0126   -0.8104   -0.7570 C   0  0  0  0  0  0
    8.6408   -0.1101    0.2693 C   0  0  0  0  0  0
    7.8784    0.5874    1.2038 C   0  0  0  0  0  0
    8.6726    1.4576    2.4681 Cl  0  0  0  0  0  0
    6.4830    0.5820    1.1124 C   0  0  0  0  0  0
    5.7578    1.2785    2.0215 F   0  0  0  0  0  0
   -0.5534   -0.9677   -1.2573 C   0  0  0  0  0  0
    0.1698   -1.9460   -1.9569 C   0  0  0  0  0  0
   -0.3764   -2.5604   -3.0878 C   0  0  0  0  0  0
   -1.6431   -2.1911   -3.5489 C   0  0  0  0  0  0
   -2.3803   -1.2121   -2.8741 C   0  0  0  0  0  0
   -1.8304   -0.6615   -1.7226 C   0  0  0  0  0  0
   -3.7262   -0.7440   -3.3193 C   0  0  0  0  0  0
   -4.7119   -1.6947   -3.6181 C   0  0  0  0  0  0
   -6.0012   -1.3074   -3.9798 C   0  0  0  0  0  0
   -6.3271    0.0437   -4.0588 C   0  0  0  0  0  0
   -5.3618    1.0088   -3.7837 C   0  0  0  0  0  0
   -4.0692    0.6293   -3.4039 C   0  0  0  0  0  0
   -3.1042    1.6450   -3.2800 N   0  0  0  0  0  0
   -2.9038    2.4871   -2.2392 C   0  0  0  0  0  0
   -2.0750    3.3894   -2.3509 O   0  0  0  0  0  0
   -5.5227    3.2131   -1.7747 H   0  0  0  0  0  0
   -4.5175    4.3919   -0.9430 H   0  0  0  0  0  0
   -5.4885    3.2465   -0.0250 H   0  0  0  0  0  0
   -4.1418    1.3650   -0.8443 H   0  0  0  0  0  0
   -2.2410    3.4906    0.3056 H   0  0  0  0  0  0
   -3.4980    2.7363    1.2104 H   0  0  0  0  0  0
   -1.6499    1.5612    1.8890 H   0  0  0  0  0  0
   -2.4462    0.4716    0.8398 H   0  0  0  0  0  0
   -0.5886    1.7154   -0.9077 H   0  0  0  0  0  0
    0.1869    1.8957    0.6147 H   0  0  0  0  0  0
   -0.3437   -0.7393    0.8164 H   0  0  0  0  0  0
    1.6131    0.7833   -1.9609 H   0  0  0  0  0  0
    2.3519    1.6121   -0.6292 H   0  0  0  0  0  0
    3.5717   -0.8500   -1.8727 H   0  0  0  0  0  0
    4.2111    0.7891   -1.9753 H   0  0  0  0  0  0
    4.1153   -0.8525    1.9405 H   0  0  0  0  0  0
    8.6072   -1.3522   -1.4780 H   0  0  0  0  0  0
    9.7190   -0.1098    0.3371 H   0  0  0  0  0  0
    1.1608   -2.2323   -1.6369 H   0  0  0  0  0  0
    0.1903   -3.3118   -3.6177 H   0  0  0  0  0  0
   -2.0428   -2.6571   -4.4378 H   0  0  0  0  0  0
   -2.4350    0.0414   -1.1953 H   0  0  0  0  0  0
   -4.4850   -2.7491   -3.5518 H   0  0  0  0  0  0
   -6.7482   -2.0563   -4.1989 H   0  0  0  0  0  0
   -7.3233    0.3435   -4.3489 H   0  0  0  0  0  0
   -5.6182    2.0535   -3.8867 H   0  0  0  0  0  0
   -2.5171    1.7777   -4.0905 H   0  0  0  0  0  0
  1  2  1  0  0  0
  1 38  1  0  0  0
  1 39  1  0  0  0
  1 40  1  0  0  0
  2  3  1  0  0  0
  2 36  1  0  0  0
  2 41  1  0  0  0
  3  4  1  0  0  0
  3 42  1  0  0  0
  3 43  1  0  0  0
  4  5  1  0  0  0
  4 44  1  0  0  0
  4 45  1  0  0  0
  5  6  1  0  0  0
  5 46  1  0  0  0
  5 47  1  0  0  0
  6  7  1  0  0  0
  6 23  1  0  0  0
  6 48  1  0  0  0
  7  8  1  0  0  0
  7 12  1  0  0  0
  8  9  1  0  0  0
  8 49  1  0  0  0
  8 50  1  0  0  0
  9 10  1  0  0  0
  9 51  1  0  0  0
  9 52  1  0  0  0
 10 11  2  0  0  0
 10 14  1  0  0  0
 11 12  1  0  0  0
 11 53  1  0  0  0
 12 13  2  0  0  0
 14 15  2  0  0  0
 14 21  1  0  0  0
 15 16  1  0  0  0
 15 17  1  0  0  0
 17 18  2  0  0  0
 17 54  1  0  0  0
 18 19  1  0  0  0
 18 55  1  0  0  0
 19 20  1  0  0  0
 19 21  2  0  0  0
 21 22  1  0  0  0
 23 24  1  0  0  0
 23 28  2  0  0  0
 24 25  2  0  0  0
 24 56  1  0  0  0
 25 26  1  0  0  0
 25 57  1  0  0  0
 26 27  2  0  0  0
 26 58  1  0  0  0
 27 28  1  0  0  0
 27 29  1  0  0  0
 28 59  1  0  0  0
 29 30  2  0  0  0
 29 34  1  0  0  0
 30 31  1  0  0  0
 30 60  1  0  0  0
 31 32  2  0  0  0
 31 61  1  0  0  0
 32 33  1  0  0  0
 32 62  1  0  0  0
 33 34  2  0  0  0
 33 63  1  0  0  0
 34 35  1  0  0  0
 35 36  1  0  0  0
 35 64  1  0  0  0
 36 37  2  0  0  0
M  END
> <chembl_id>
CHEMBL4115461

> <chembl_pref_name>
None

> <i_m_ct_stereo_status>
1

> <s_m_source_file>
sdf/actives_sanitized.sdf

> <i_m_source_file_index>
269

> <i_lp_mmshare_version>
49012

> <i_f3d_flags>
0

> <s_epik_input>
YzEyW2NIXVtjSF1bY0hdYyhbY0hdMiljM2MoW2NIXVtjSF1bY0hdW2NIXTMpW05IXUMoPU8pW0NASF0oW0NIM10pW0NIMl1bQ0gyXVtDSDJdW0NAQEhdMU40W0NIMl1bQ0gyXUMoPVtDSF1DND1PKWM1YyhGKVtjSF1bY0hdYyhDbCljNUY=

> <s_epik_cmdline>
J2VwaWtfcHl0aG9uJywgJy1waHQnLCAnMC41JywgJy1waCcsICc3LjUnLCAnLW50JywgJy1tYScsICcyMDAnLCAnLWltYWUnLCAnPGluZmlsZS5tYWU+JywgJy1vbWFlJywgJzxvdXRmaWxlLm1hZT4n

> <r_lp_tautomer_probability>
1

> <r_epik_Ionization_Penalty>
  0.0000

> <r_epik_Ionization_Penalty_Charging>
  0.0000

> <r_epik_Ionization_Penalty_Neutral>
  0.0000

> <r_epik_State_Penalty>
 -0.0000

> <r_epik_Charging_Adjusted_Penalty>
0

> <i_epik_Tot_Q>
0

> <i_epik_Tot_abs_Q>
0

> <s_lp_Force_Field>
OPLS3e

> <r_lp_Energy>
99.910068

> <b_lp_Chiralities_Consistent>
1

> <s_lp_Variant>
sdf/actives_sanitized.sdf:269-1

$$$$
sdf/actives_sanitized.sdf:270
                    3D
 Schrodinger Suite 2020-1.
 66 70  0  0  1  0            999 V2000
   -4.9208    3.2597   -0.7513 C   0  0  0  0  0  0
   -3.7276    2.2805   -0.8014 C   0  0  2  0  0  0
   -2.8279    2.4655    0.4708 C   0  0  0  0  0  0
   -1.8695    1.3097    0.8733 C   0  0  0  0  0  0
   -0.5328    1.2180    0.0884 C   0  0  0  0  0  0
    0.0480   -0.2269   -0.0942 C   0  0  2  0  0  0
    1.5299   -0.2015   -0.0557 N   0  0  0  0  0  0
    2.2442    0.6643   -1.0396 C   0  0  0  0  0  0
    3.6943    0.1847   -1.3165 C   0  0  0  0  0  0
    4.3664   -0.1190    0.0073 C   0  0  0  0  0  0
    3.6269   -0.6429    1.0028 C   0  0  0  0  0  0
    2.1985   -0.8673    0.9420 C   0  0  0  0  0  0
    1.6634   -1.6410    1.7374 O   0  0  0  0  0  0
    5.8368   -0.1111    0.1050 C   0  0  0  0  0  0
    6.5176    1.0279    0.5644 C   0  0  0  0  0  0
    5.5759    2.6066    1.0798 Br  0  0  0  0  0  0
    7.9101    1.0237    0.6528 C   0  0  0  0  0  0
    8.6343   -0.1079    0.2853 C   0  0  0  0  0  0
    7.9687   -1.2433   -0.1745 C   0  0  0  0  0  0
    8.8812   -2.6390   -0.6270 Cl  0  0  0  0  0  0
    6.5736   -1.2462   -0.2659 C   0  0  0  0  0  0
    5.9341   -2.3539   -0.7144 F   0  0  0  0  0  0
   -0.5116   -0.9560   -1.3403 C   0  0  0  0  0  0
    0.2503   -1.8341   -2.1269 C   0  0  0  0  0  0
   -0.2842   -2.3891   -3.2937 C   0  0  0  0  0  0
   -1.5780   -2.0569   -3.7046 C   0  0  0  0  0  0
   -2.3543   -1.1824   -2.9381 C   0  0  0  0  0  0
   -1.8172   -0.6962   -1.7519 C   0  0  0  0  0  0
   -3.7265   -0.7461   -3.3242 C   0  0  0  0  0  0
   -4.6939   -1.7142   -3.6224 C   0  0  0  0  0  0
   -6.0221   -1.3693   -3.9206 C   0  0  0  0  0  0
   -6.3709   -0.0109   -3.9177 C   0  0  0  0  0  0
   -5.4232    0.9706   -3.6405 C   0  0  0  0  0  0
   -4.1055    0.6161   -3.3422 C   0  0  0  0  0  0
   -3.1576    1.6458   -3.1993 N   0  0  0  0  0  0
   -2.9672    2.4693   -2.1422 C   0  0  0  0  0  0
   -2.1637    3.3961   -2.2422 O   0  0  0  0  0  0
   -7.0426   -2.4260   -4.2322 C   0  0  0  0  0  0
   -8.2116   -2.0572   -4.4902 O   0  0  0  0  0  0
   -6.6733   -3.6228   -4.2203 O   0  5  0  0  0  0
   -5.5926    3.1274   -1.5997 H   0  0  0  0  0  0
   -4.5908    4.3000   -0.7557 H   0  0  0  0  0  0
   -5.5175    3.1084    0.1490 H   0  0  0  0  0  0
   -4.1545    1.2782   -0.7619 H   0  0  0  0  0  0
   -2.2721    3.4034    0.4186 H   0  0  0  0  0  0
   -3.4966    2.5974    1.3231 H   0  0  0  0  0  0
   -1.6110    1.4390    1.9255 H   0  0  0  0  0  0
   -2.4150    0.3668    0.8647 H   0  0  0  0  0  0
   -0.6209    1.6865   -0.8901 H   0  0  0  0  0  0
    0.1855    1.8473    0.6173 H   0  0  0  0  0  0
   -0.3248   -0.8187    0.7430 H   0  0  0  0  0  0
    1.6474    0.8643   -1.9302 H   0  0  0  0  0  0
    2.3529    1.6311   -0.5454 H   0  0  0  0  0  0
    3.6504   -0.7270   -1.9140 H   0  0  0  0  0  0
    4.2515    0.9270   -1.8894 H   0  0  0  0  0  0
    4.1254   -0.9528    1.9108 H   0  0  0  0  0  0
    8.4318    1.9003    1.0079 H   0  0  0  0  0  0
    9.7122   -0.1013    0.3576 H   0  0  0  0  0  0
    1.2634   -2.0854   -1.8496 H   0  0  0  0  0  0
    0.3126   -3.0623   -3.8912 H   0  0  0  0  0  0
   -1.9702   -2.4703   -4.6225 H   0  0  0  0  0  0
   -2.4505   -0.0680   -1.1632 H   0  0  0  0  0  0
   -4.4016   -2.7550   -3.6006 H   0  0  0  0  0  0
   -7.3797    0.3025   -4.1463 H   0  0  0  0  0  0
   -5.7151    2.0098   -3.6833 H   0  0  0  0  0  0
   -2.5418    1.7718   -3.9893 H   0  0  0  0  0  0
  1  2  1  0  0  0
  1 41  1  0  0  0
  1 42  1  0  0  0
  1 43  1  0  0  0
  2  3  1  0  0  0
  2 36  1  0  0  0
  2 44  1  0  0  0
  3  4  1  0  0  0
  3 45  1  0  0  0
  3 46  1  0  0  0
  4  5  1  0  0  0
  4 47  1  0  0  0
  4 48  1  0  0  0
  5  6  1  0  0  0
  5 49  1  0  0  0
  5 50  1  0  0  0
  6  7  1  0  0  0
  6 23  1  0  0  0
  6 51  1  0  0  0
  7  8  1  0  0  0
  7 12  1  0  0  0
  8  9  1  0  0  0
  8 52  1  0  0  0
  8 53  1  0  0  0
  9 10  1  0  0  0
  9 54  1  0  0  0
  9 55  1  0  0  0
 10 11  2  0  0  0
 10 14  1  0  0  0
 11 12  1  0  0  0
 11 56  1  0  0  0
 12 13  2  0  0  0
 14 15  2  0  0  0
 14 21  1  0  0  0
 15 16  1  0  0  0
 15 17  1  0  0  0
 17 18  2  0  0  0
 17 57  1  0  0  0
 18 19  1  0  0  0
 18 58  1  0  0  0
 19 20  1  0  0  0
 19 21  2  0  0  0
 21 22  1  0  0  0
 23 24  1  0  0  0
 23 28  2  0  0  0
 24 25  2  0  0  0
 24 59  1  0  0  0
 25 26  1  0  0  0
 25 60  1  0  0  0
 26 27  2  0  0  0
 26 61  1  0  0  0
 27 28  1  0  0  0
 27 29  1  0  0  0
 28 62  1  0  0  0
 29 30  2  0  0  0
 29 34  1  0  0  0
 30 31  1  0  0  0
 30 63  1  0  0  0
 31 32  2  0  0  0
 31 38  1  0  0  0
 32 33  1  0  0  0
 32 64  1  0  0  0
 33 34  2  0  0  0
 33 65  1  0  0  0
 34 35  1  0  0  0
 35 36  1  0  0  0
 35 66  1  0  0  0
 36 37  2  0  0  0
 38 39  2  0  0  0
 38 40  1  0  0  0
M  CHG  1  40  -1
M  END
> <chembl_id>
CHEMBL4113230

> <chembl_pref_name>
None

> <i_m_ct_stereo_status>
1

> <s_m_source_file>
sdf/actives_sanitized.sdf

> <i_m_source_file_index>
270

> <i_lp_mmshare_version>
49012

> <i_f3d_flags>
0

> <s_epik_input>
YzEyW2NIXVtjSF1bY0hdYyhbY0hdMiljM2MoW2NIXVtjSF1jKFtjSF0zKUMoPU8pW09IXSlbTkhdQyg9TylbQ0BIXShbQ0gzXSlbQ0gyXVtDSDJdW0NIMl1bQ0BASF0xTjRbQ0gyXVtDSDJdQyg9W0NIXUM0PU8pYzVjKEJyKVtjSF1bY0hdYyhDbCljNUY=

> <s_epik_cmdline>
J2VwaWtfcHl0aG9uJywgJy1waHQnLCAnMC41JywgJy1waCcsICc3LjUnLCAnLW50JywgJy1tYScsICcyMDAnLCAnLWltYWUnLCAnPGluZmlsZS5tYWU+JywgJy1vbWFlJywgJzxvdXRmaWxlLm1hZT4n

> <r_lp_tautomer_probability>
1

> <r_epik_Ionization_Penalty>
  0.0003

> <r_epik_Ionization_Penalty_Charging>
  0.0003

> <r_epik_Ionization_Penalty_Neutral>
  0.0000

> <r_epik_State_Penalty>
 -0.0000

> <r_epik_Charging_Adjusted_Penalty>
0.000302429357200531

> <i_epik_Tot_Q>
-1

> <i_epik_Tot_abs_Q>
1

> <s_lp_Force_Field>
OPLS3e

> <r_lp_Energy>
92.39783

> <b_lp_Chiralities_Consistent>
1

> <s_lp_Variant>
sdf/actives_sanitized.sdf:270-1

$$$$
sdf/actives_sanitized.sdf:271
                    3D
 Schrodinger Suite 2020-1.
 74 79  0  0  1  0            999 V2000
   -5.1221    1.9943   -1.0431 C   0  0  0  0  0  0
   -4.0176    1.1652   -1.7299 C   0  0  2  0  0  0
   -2.6124    1.8135   -1.5569 C   0  0  0  0  0  0
   -2.0015    1.6893   -0.1358 C   0  0  0  0  0  0
   -0.4565    1.5324   -0.1047 C   0  0  0  0  0  0
    0.0854    0.0711   -0.2285 C   0  0  2  0  0  0
    1.5618   -0.0203   -0.0976 N   0  0  0  0  0  0
    2.4237    1.0007   -0.7651 C   0  0  0  0  0  0
    3.8443    0.4731   -1.1023 C   0  0  0  0  0  0
    4.3973   -0.2634    0.1050 C   0  0  0  0  0  0
    3.5336   -0.9970    0.8357 C   0  0  0  0  0  0
    2.1040   -1.0606    0.6171 C   0  0  0  0  0  0
    1.4536   -2.0096    1.0587 O   0  0  0  0  0  0
    5.8616   -0.4116    0.3040 C   0  0  0  0  0  0
    6.4277   -0.2199    1.5770 C   0  0  0  0  0  0
    5.6515    0.1089    2.6371 F   0  0  0  0  0  0
    7.8027   -0.3469    1.7707 C   0  0  0  0  0  0
    8.6346   -0.6628    0.7006 C   0  0  0  0  0  0
    8.0930   -0.8543   -0.5686 C   0  0  0  0  0  0
    9.1400   -1.2479   -1.8860 Cl  0  0  0  0  0  0
    6.7144   -0.7301   -0.7687 C   0  0  0  0  0  0
    6.2109   -0.9385   -2.0090 F   0  0  0  0  0  0
   -0.4651   -0.6465   -1.4649 C   0  0  0  0  0  0
   -1.6919   -1.3085   -1.3816 C   0  0  0  0  0  0
   -2.3261   -1.7195   -2.5570 C   0  0  0  0  0  0
   -1.6437   -1.5754   -3.7711 C   0  0  0  0  0  0
   -0.3741   -0.9936   -3.7654 C   0  0  0  0  0  0
    0.2116   -0.5129   -2.6391 N   0  0  0  0  0  0
   -3.7262   -2.2080   -2.4973 C   0  0  0  0  0  0
   -3.9943   -3.4181   -1.8492 C   0  0  0  0  0  0
   -5.2950   -3.9081   -1.7537 C   0  0  0  0  0  0
   -6.3666   -3.1914   -2.2876 C   0  0  0  0  0  0
   -7.6498   -3.7523   -2.1678 N   0  0  0  0  0  0
   -8.9471   -3.2259   -2.2899 C   0  0  0  0  0  0
  -10.0173   -4.1203   -2.4079 C   0  0  0  0  0  0
  -11.3232   -3.6388   -2.5162 C   0  0  0  0  0  0
  -11.5263   -2.2591   -2.4890 C   0  0  0  0  0  0
  -10.5122   -1.3685   -2.3524 N   0  0  0  0  0  0
   -9.2488   -1.8561   -2.2517 C   0  0  0  0  0  0
   -6.1091   -1.9853   -2.9499 C   0  0  0  0  0  0
   -4.8082   -1.4795   -3.0388 C   0  0  0  0  0  0
   -4.6498   -0.2708   -3.7359 N   0  0  0  0  0  0
   -4.3403    0.9461   -3.2322 C   0  0  0  0  0  0
   -4.3108    1.9171   -3.9871 O   0  0  0  0  0  0
   -6.0990    1.5198   -1.1473 H   0  0  0  0  0  0
   -5.1980    2.9975   -1.4653 H   0  0  0  0  0  0
   -4.9288    2.0995    0.0250 H   0  0  0  0  0  0
   -4.0061    0.1996   -1.2296 H   0  0  0  0  0  0
   -1.9255    1.3742   -2.2795 H   0  0  0  0  0  0
   -2.6482    2.8666   -1.8417 H   0  0  0  0  0  0
   -2.2795    2.5807    0.4283 H   0  0  0  0  0  0
   -2.4530    0.8617    0.4122 H   0  0  0  0  0  0
   -0.0218    2.1800   -0.8666 H   0  0  0  0  0  0
   -0.1044    1.9316    0.8476 H   0  0  0  0  0  0
   -0.3446   -0.4503    0.6293 H   0  0  0  0  0  0
    1.9230    1.4772   -1.6077 H   0  0  0  0  0  0
    2.5551    1.7944   -0.0281 H   0  0  0  0  0  0
    3.7500   -0.2213   -1.9384 H   0  0  0  0  0  0
    4.4982    1.2878   -1.4153 H   0  0  0  0  0  0
    3.9203   -1.6171    1.6324 H   0  0  0  0  0  0
    8.2259   -0.1949    2.7528 H   0  0  0  0  0  0
    9.6991   -0.7577    0.8584 H   0  0  0  0  0  0
   -2.2065   -1.3835   -0.4345 H   0  0  0  0  0  0
   -2.0960   -1.8884   -4.7009 H   0  0  0  0  0  0
    0.1767   -0.8671   -4.6855 H   0  0  0  0  0  0
   -3.1857   -3.9910   -1.4182 H   0  0  0  0  0  0
   -5.4641   -4.8497   -1.2508 H   0  0  0  0  0  0
   -7.6382   -4.7285   -1.9101 H   0  0  0  0  0  0
   -9.8428   -5.1867   -2.4253 H   0  0  0  0  0  0
  -12.1562   -4.3187   -2.6180 H   0  0  0  0  0  0
  -12.5215   -1.8475   -2.5705 H   0  0  0  0  0  0
   -8.4903   -1.1074   -2.0897 H   0  0  0  0  0  0
   -6.9083   -1.4417   -3.4294 H   0  0  0  0  0  0
   -4.9130   -0.2998   -4.7101 H   0  0  0  0  0  0
  1  2  1  0  0  0
  1 45  1  0  0  0
  1 46  1  0  0  0
  1 47  1  0  0  0
  2  3  1  0  0  0
  2 43  1  0  0  0
  2 48  1  0  0  0
  3  4  1  0  0  0
  3 49  1  0  0  0
  3 50  1  0  0  0
  4  5  1  0  0  0
  4 51  1  0  0  0
  4 52  1  0  0  0
  5  6  1  0  0  0
  5 53  1  0  0  0
  5 54  1  0  0  0
  6  7  1  0  0  0
  6 23  1  0  0  0
  6 55  1  0  0  0
  7  8  1  0  0  0
  7 12  1  0  0  0
  8  9  1  0  0  0
  8 56  1  0  0  0
  8 57  1  0  0  0
  9 10  1  0  0  0
  9 58  1  0  0  0
  9 59  1  0  0  0
 10 11  2  0  0  0
 10 14  1  0  0  0
 11 12  1  0  0  0
 11 60  1  0  0  0
 12 13  2  0  0  0
 14 15  2  0  0  0
 14 21  1  0  0  0
 15 16  1  0  0  0
 15 17  1  0  0  0
 17 18  2  0  0  0
 17 61  1  0  0  0
 18 19  1  0  0  0
 18 62  1  0  0  0
 19 20  1  0  0  0
 19 21  2  0  0  0
 21 22  1  0  0  0
 23 24  1  0  0  0
 23 28  2  0  0  0
 24 25  2  0  0  0
 24 63  1  0  0  0
 25 26  1  0  0  0
 25 29  1  0  0  0
 26 27  2  0  0  0
 26 64  1  0  0  0
 27 28  1  0  0  0
 27 65  1  0  0  0
 29 30  2  0  0  0
 29 41  1  0  0  0
 30 31  1  0  0  0
 30 66  1  0  0  0
 31 32  2  0  0  0
 31 67  1  0  0  0
 32 33  1  0  0  0
 32 40  1  0  0  0
 33 34  1  0  0  0
 33 68  1  0  0  0
 34 35  2  0  0  0
 34 39  1  0  0  0
 35 36  1  0  0  0
 35 69  1  0  0  0
 36 37  2  0  0  0
 36 70  1  0  0  0
 37 38  1  0  0  0
 37 71  1  0  0  0
 38 39  2  0  0  0
 39 72  1  0  0  0
 40 41  2  0  0  0
 40 73  1  0  0  0
 41 42  1  0  0  0
 42 43  1  0  0  0
 42 74  1  0  0  0
 43 44  2  0  0  0
M  END
> <chembl_id>
CHEMBL4111663

> <chembl_pref_name>
None

> <i_m_ct_stereo_status>
1

> <s_m_source_file>
sdf/actives_sanitized.sdf

> <i_m_source_file_index>
271

> <i_lp_mmshare_version>
49012

> <i_f3d_flags>
0

> <s_epik_input>
W2NIXTFuW2NIXVtjSF1bY0hdYzFbTkhdYyhbY0hdW2NIXTIpW2NIXWMoYzJjKFtjSF1jMzQpW2NIXVtjSF1uNClbTkhdQyg9TylbQ0BIXShbQ0gzXSlbQ0gyXVtDSDJdW0NIMl1bQ0BASF0zTjVbQ0gyXVtDSDJdQyg9W0NIXUM1PU8pYzZjKEYpW2NIXVtjSF1jKENsKWM2Rg==

> <s_epik_cmdline>
J2VwaWtfcHl0aG9uJywgJy1waHQnLCAnMC41JywgJy1waCcsICc3LjUnLCAnLW50JywgJy1tYScsICcyMDAnLCAnLWltYWUnLCAnPGluZmlsZS5tYWU+JywgJy1vbWFlJywgJzxvdXRmaWxlLm1hZT4n

> <r_lp_tautomer_probability>
1

> <r_epik_Ionization_Penalty>
  0.0085

> <r_epik_Ionization_Penalty_Charging>
  0.0000

> <r_epik_Ionization_Penalty_Neutral>
  0.0085

> <r_epik_State_Penalty>
 -0.0000

> <r_epik_Charging_Adjusted_Penalty>
0

> <i_epik_Tot_Q>
0

> <i_epik_Tot_abs_Q>
0

> <s_lp_Force_Field>
OPLS3e

> <r_lp_Energy>
109.646658

> <b_lp_Chiralities_Consistent>
1

> <s_lp_Variant>
sdf/actives_sanitized.sdf:271-1

$$$$
sdf/actives_sanitized.sdf:272
                    3D
 Schrodinger Suite 2020-1.
 69 74  0  0  1  0            999 V2000
   -5.2569    1.7353   -0.7816 C   0  0  0  0  0  0
   -4.1400    0.9769   -1.5273 C   0  0  2  0  0  0
   -2.7601    1.6837   -1.3791 C   0  0  0  0  0  0
   -2.0988    1.5511    0.0187 C   0  0  0  0  0  0
   -0.5483    1.4584   -0.0026 C   0  0  0  0  0  0
    0.0444    0.0228   -0.1801 C   0  0  2  0  0  0
    1.5254   -0.0246   -0.0858 N   0  0  0  0  0  0
    2.3382    1.0593   -0.7164 C   0  0  0  0  0  0
    3.7768    0.6145   -1.0970 C   0  0  0  0  0  0
    4.3615   -0.1936    0.0420 C   0  0  0  0  0  0
    3.5444   -0.9982    0.7454 C   0  0  0  0  0  0
    2.1131   -1.0872    0.5566 C   0  0  0  0  0  0
    1.4996   -2.0772    0.9599 O   0  0  0  0  0  0
    5.8232   -0.3186    0.1819 C   0  0  0  0  0  0
    6.5296    0.5022    1.0758 C   0  0  0  0  0  0
    5.6339    1.8046    2.1459 Br  0  0  0  0  0  0
    7.9140    0.3782    1.1970 C   0  0  0  0  0  0
    8.6051   -0.5581    0.4314 C   0  0  0  0  0  0
    7.9144   -1.3771   -0.4604 C   0  0  0  0  0  0
    8.7863   -2.5334   -1.4029 Cl  0  0  0  0  0  0
    6.5269   -1.2587   -0.5863 C   0  0  0  0  0  0
    5.8628   -2.0580   -1.4563 F   0  0  0  0  0  0
   -0.5112   -0.6820   -1.4207 C   0  0  0  0  0  0
   -1.7029   -1.4022   -1.3198 C   0  0  0  0  0  0
   -2.3562   -1.8056   -2.4870 C   0  0  0  0  0  0
   -1.7211   -1.5934   -3.7168 C   0  0  0  0  0  0
   -0.4800   -0.9533   -3.7324 C   0  0  0  0  0  0
    0.1199   -0.4804   -2.6102 N   0  0  0  0  0  0
   -3.7319   -2.3555   -2.3973 C   0  0  0  0  0  0
   -3.9309   -3.5820   -1.7564 C   0  0  0  0  0  0
   -5.2059   -4.1288   -1.6316 C   0  0  0  0  0  0
   -6.3275   -3.4636   -2.1428 C   0  0  0  0  0  0
   -6.1329   -2.2289   -2.7770 C   0  0  0  0  0  0
   -4.8590   -1.6639   -2.8911 C   0  0  0  0  0  0
   -4.7754   -0.4290   -3.5547 N   0  0  0  0  0  0
   -4.5018    0.7855   -3.0248 C   0  0  0  0  0  0
   -4.5390    1.7780   -3.7513 O   0  0  0  0  0  0
   -7.7051   -4.0568   -2.0105 C   0  0  0  0  0  0
   -7.9188   -5.2196   -1.4157 N   0  0  0  0  0  0
   -9.2395   -5.3509   -1.5198 N   0  0  0  0  0  0
   -9.7548   -4.2693   -2.1678 C   0  0  0  0  0  0
   -8.7905   -3.4450   -2.4827 N   0  0  0  0  0  0
   -6.2133    1.2162   -0.8618 H   0  0  0  0  0  0
   -5.3962    2.7430   -1.1758 H   0  0  0  0  0  0
   -5.0293    1.8256    0.2809 H   0  0  0  0  0  0
   -4.0689   -0.0005   -1.0558 H   0  0  0  0  0  0
   -2.0776    1.2954   -2.1342 H   0  0  0  0  0  0
   -2.8522    2.7412   -1.6334 H   0  0  0  0  0  0
   -2.3955    2.4153    0.6147 H   0  0  0  0  0  0
   -2.4973    0.6910    0.5581 H   0  0  0  0  0  0
   -0.1644    2.1411   -0.7612 H   0  0  0  0  0  0
   -0.1824    1.8474    0.9489 H   0  0  0  0  0  0
   -0.3452   -0.5349    0.6742 H   0  0  0  0  0  0
    1.8064    1.5575   -1.5267 H   0  0  0  0  0  0
    2.4470    1.8206    0.0574 H   0  0  0  0  0  0
    3.7163   -0.0177   -1.9841 H   0  0  0  0  0  0
    4.4013    1.4728   -1.3469 H   0  0  0  0  0  0
    3.9750   -1.6542    1.4891 H   0  0  0  0  0  0
    8.4549    1.0103    1.8860 H   0  0  0  0  0  0
    9.6771   -0.6460    0.5317 H   0  0  0  0  0  0
   -2.1826   -1.5291   -0.3598 H   0  0  0  0  0  0
   -2.1896   -1.8983   -4.6413 H   0  0  0  0  0  0
    0.0336   -0.7721   -4.6651 H   0  0  0  0  0  0
   -3.0876   -4.1225   -1.3504 H   0  0  0  0  0  0
   -5.3114   -5.0804   -1.1314 H   0  0  0  0  0  0
   -6.9819   -1.6941   -3.1797 H   0  0  0  0  0  0
   -5.0691   -0.4414   -4.5205 H   0  0  0  0  0  0
  -10.8139   -4.1750   -2.3578 H   0  0  0  0  0  0
   -9.7529   -6.1439   -1.1621 H   0  0  0  0  0  0
  1  2  1  0  0  0
  1 43  1  0  0  0
  1 44  1  0  0  0
  1 45  1  0  0  0
  2  3  1  0  0  0
  2 36  1  0  0  0
  2 46  1  0  0  0
  3  4  1  0  0  0
  3 47  1  0  0  0
  3 48  1  0  0  0
  4  5  1  0  0  0
  4 49  1  0  0  0
  4 50  1  0  0  0
  5  6  1  0  0  0
  5 51  1  0  0  0
  5 52  1  0  0  0
  6  7  1  0  0  0
  6 23  1  0  0  0
  6 53  1  0  0  0
  7  8  1  0  0  0
  7 12  1  0  0  0
  8  9  1  0  0  0
  8 54  1  0  0  0
  8 55  1  0  0  0
  9 10  1  0  0  0
  9 56  1  0  0  0
  9 57  1  0  0  0
 10 11  2  0  0  0
 10 14  1  0  0  0
 11 12  1  0  0  0
 11 58  1  0  0  0
 12 13  2  0  0  0
 14 15  2  0  0  0
 14 21  1  0  0  0
 15 16  1  0  0  0
 15 17  1  0  0  0
 17 18  2  0  0  0
 17 59  1  0  0  0
 18 19  1  0  0  0
 18 60  1  0  0  0
 19 20  1  0  0  0
 19 21  2  0  0  0
 21 22  1  0  0  0
 23 24  1  0  0  0
 23 28  2  0  0  0
 24 25  2  0  0  0
 24 61  1  0  0  0
 25 26  1  0  0  0
 25 29  1  0  0  0
 26 27  2  0  0  0
 26 62  1  0  0  0
 27 28  1  0  0  0
 27 63  1  0  0  0
 29 30  2  0  0  0
 29 34  1  0  0  0
 30 31  1  0  0  0
 30 64  1  0  0  0
 31 32  2  0  0  0
 31 65  1  0  0  0
 32 33  1  0  0  0
 32 38  1  0  0  0
 33 34  2  0  0  0
 33 66  1  0  0  0
 34 35  1  0  0  0
 35 36  1  0  0  0
 35 67  1  0  0  0
 36 37  2  0  0  0
 38 39  2  0  0  0
 38 42  1  0  0  0
 39 40  1  0  0  0
 40 41  1  0  0  0
 40 69  1  0  0  0
 41 42  2  0  0  0
 41 68  1  0  0  0
M  END
> <chembl_id>
CHEMBL3940340

> <chembl_pref_name>
None

> <i_m_ct_stereo_status>
1

> <s_m_source_file>
sdf/actives_sanitized.sdf

> <i_m_source_file_index>
272

> <i_lp_mmshare_version>
49012

> <i_f3d_flags>
0

> <s_epik_input>
W25IXTFbY0hdbm5jMS1jKFtjSF1bY0hdMilbY0hdYyhjMmMoW2NIXWMzNClbY0hdW2NIXW40KVtOSF1DKD1PKVtDQEhdKFtDSDNdKVtDSDJdW0NIMl1bQ0gyXVtDQEBIXTNONVtDSDJdW0NIMl1DKD1bQ0hdQzU9TyljNmMoQnIpW2NIXVtjSF1jKENsKWM2Rg==

> <s_epik_cmdline>
J2VwaWtfcHl0aG9uJywgJy1waHQnLCAnMC41JywgJy1waCcsICc3LjUnLCAnLW50JywgJy1tYScsICcyMDAnLCAnLWltYWUnLCAnPGluZmlsZS5tYWU+JywgJy1vbWFlJywgJzxvdXRmaWxlLm1hZT4n

> <r_lp_tautomer_probability>
1

> <r_epik_Ionization_Penalty>
  0.0065

> <r_epik_Ionization_Penalty_Charging>
  0.0000

> <r_epik_Ionization_Penalty_Neutral>
  0.0065

> <r_epik_State_Penalty>
 -0.0000

> <r_epik_Charging_Adjusted_Penalty>
0

> <i_epik_Tot_Q>
0

> <i_epik_Tot_abs_Q>
0

> <s_lp_Force_Field>
OPLS3e

> <r_lp_Energy>
93.222231

> <b_lp_Chiralities_Consistent>
1

> <s_lp_Variant>
sdf/actives_sanitized.sdf:272-1

$$$$
sdf/actives_sanitized.sdf:273
                    3D
 Schrodinger Suite 2020-1.
 75 79  0  0  1  0            999 V2000
  -11.3630   -1.4880   -4.0086 C   0  0  0  0  0  0
  -10.1159   -0.8152   -3.8986 O   0  0  0  0  0  0
   -8.9696   -1.5065   -3.7366 C   0  0  0  0  0  0
   -8.9036   -2.7358   -3.6713 O   0  0  0  0  0  0
   -7.9187   -0.5977   -3.6559 N   0  0  0  0  0  0
   -6.5424   -0.8322   -3.4943 C   0  0  0  0  0  0
   -5.9496   -2.1034   -3.4597 C   0  0  0  0  0  0
   -4.5716   -2.2327   -3.2937 C   0  0  0  0  0  0
   -3.7542   -1.1075   -3.1500 C   0  0  0  0  0  0
   -4.3493    0.1736   -3.2015 C   0  0  0  0  0  0
   -3.5649    1.3411   -3.2157 N   0  0  0  0  0  0
   -3.3895    2.2494   -2.2282 C   0  0  0  0  0  0
   -2.7364    3.2653   -2.4619 O   0  0  0  0  0  0
   -3.9879    2.0554   -0.8085 C   0  0  2  0  0  0
   -5.3107    2.8467   -0.7033 C   0  0  0  0  0  0
   -3.0186    2.4773    0.3520 C   0  0  0  0  0  0
   -1.8690    1.5090    0.7482 C   0  0  0  0  0  0
   -0.6020    1.5285   -0.1505 C   0  0  0  0  0  0
    0.1377    0.1519   -0.3043 C   0  0  2  0  0  0
    1.6175    0.2689   -0.2436 N   0  0  0  0  0  0
    2.3248   -0.6856    0.6527 C   0  0  0  0  0  0
    3.7191   -0.1627    1.0873 C   0  0  0  0  0  0
    4.4688    0.3376   -0.1368 C   0  0  0  0  0  0
    3.7533    0.9006   -1.1325 C   0  0  0  0  0  0
    2.3109    1.0237   -1.1622 C   0  0  0  0  0  0
    1.7772    1.8010   -1.9550 O   0  0  0  0  0  0
    5.9534    0.3912   -0.1296 C   0  0  0  0  0  0
    6.6025    0.8478    1.0261 C   0  0  0  0  0  0
    7.9911    0.9411    1.0809 C   0  0  0  0  0  0
    8.7646    1.5087    2.5158 Cl  0  0  0  0  0  0
    8.7528    0.5817   -0.0259 C   0  0  0  0  0  0
    8.1259    0.1258   -1.1827 C   0  0  0  0  0  0
    6.7249    0.0171   -1.2503 C   0  0  0  0  0  0
    6.0579   -0.4476   -2.3718 O   0  0  0  0  0  0
    6.7857   -1.0291   -3.4497 C   0  0  0  0  0  0
    7.3553   -0.0885   -4.2043 F   0  0  0  0  0  0
    5.9420   -1.7316   -4.2037 F   0  0  0  0  0  0
   -0.4150   -0.6928   -1.4766 C   0  0  0  0  0  0
   -1.7837   -0.6915   -1.7282 C   0  0  0  0  0  0
   -2.3041   -1.2848   -2.8719 C   0  0  0  0  0  0
   -1.4272   -1.9931   -3.7014 C   0  0  0  0  0  0
   -0.0691   -2.0272   -3.3639 C   0  0  0  0  0  0
    0.4442   -1.3825   -2.2805 N   0  0  0  0  0  0
   -5.7311    0.2987   -3.3780 C   0  0  0  0  0  0
  -12.1667   -0.7616   -4.1286 H   0  0  0  0  0  0
  -11.5696   -2.0781   -3.1145 H   0  0  0  0  0  0
  -11.3743   -2.1530   -4.8733 H   0  0  0  0  0  0
   -8.1784    0.3757   -3.7189 H   0  0  0  0  0  0
   -6.5272   -3.0082   -3.5563 H   0  0  0  0  0  0
   -4.1404   -3.2226   -3.2514 H   0  0  0  0  0  0
   -3.0522    1.5002   -4.0708 H   0  0  0  0  0  0
   -4.2488    1.0075   -0.6620 H   0  0  0  0  0  0
   -6.0287    2.5463   -1.4667 H   0  0  0  0  0  0
   -5.1492    3.9205   -0.8126 H   0  0  0  0  0  0
   -5.7925    2.6843    0.2615 H   0  0  0  0  0  0
   -2.6135    3.4754    0.1756 H   0  0  0  0  0  0
   -3.6239    2.5897    1.2532 H   0  0  0  0  0  0
   -1.5445    1.7707    1.7567 H   0  0  0  0  0  0
   -2.2703    0.5039    0.8698 H   0  0  0  0  0  0
   -0.8400    1.9120   -1.1414 H   0  0  0  0  0  0
    0.0768    2.2753    0.2651 H   0  0  0  0  0  0
   -0.1442   -0.4247    0.5774 H   0  0  0  0  0  0
    1.6968   -1.0636    1.4597 H   0  0  0  0  0  0
    2.5393   -1.5538    0.0269 H   0  0  0  0  0  0
    3.5755    0.6633    1.7855 H   0  0  0  0  0  0
    4.2796   -0.9392    1.6089 H   0  0  0  0  0  0
    4.2803    1.3360   -1.9698 H   0  0  0  0  0  0
    6.0269    1.1437    1.8916 H   0  0  0  0  0  0
    9.8300    0.6560    0.0082 H   0  0  0  0  0  0
    8.7509   -0.1385   -2.0217 H   0  0  0  0  0  0
    7.5472   -1.7362   -3.1172 H   0  0  0  0  0  0
   -2.4636   -0.1834   -1.0764 H   0  0  0  0  0  0
   -1.7835   -2.4873   -4.5935 H   0  0  0  0  0  0
    0.6373   -2.5598   -3.9833 H   0  0  0  0  0  0
   -6.1727    1.2835   -3.4441 H   0  0  0  0  0  0
  1  2  1  0  0  0
  1 45  1  0  0  0
  1 46  1  0  0  0
  1 47  1  0  0  0
  2  3  1  0  0  0
  3  4  2  0  0  0
  3  5  1  0  0  0
  5  6  1  0  0  0
  5 48  1  0  0  0
  6  7  2  0  0  0
  6 44  1  0  0  0
  7  8  1  0  0  0
  7 49  1  0  0  0
  8  9  2  0  0  0
  8 50  1  0  0  0
  9 10  1  0  0  0
  9 40  1  0  0  0
 10 11  1  0  0  0
 10 44  2  0  0  0
 11 12  1  0  0  0
 11 51  1  0  0  0
 12 13  2  0  0  0
 12 14  1  0  0  0
 14 15  1  0  0  0
 14 16  1  0  0  0
 14 52  1  0  0  0
 15 53  1  0  0  0
 15 54  1  0  0  0
 15 55  1  0  0  0
 16 17  1  0  0  0
 16 56  1  0  0  0
 16 57  1  0  0  0
 17 18  1  0  0  0
 17 58  1  0  0  0
 17 59  1  0  0  0
 18 19  1  0  0  0
 18 60  1  0  0  0
 18 61  1  0  0  0
 19 20  1  0  0  0
 19 38  1  0  0  0
 19 62  1  0  0  0
 20 21  1  0  0  0
 20 25  1  0  0  0
 21 22  1  0  0  0
 21 63  1  0  0  0
 21 64  1  0  0  0
 22 23  1  0  0  0
 22 65  1  0  0  0
 22 66  1  0  0  0
 23 24  2  0  0  0
 23 27  1  0  0  0
 24 25  1  0  0  0
 24 67  1  0  0  0
 25 26  2  0  0  0
 27 28  2  0  0  0
 27 33  1  0  0  0
 28 29  1  0  0  0
 28 68  1  0  0  0
 29 30  1  0  0  0
 29 31  2  0  0  0
 31 32  1  0  0  0
 31 69  1  0  0  0
 32 33  2  0  0  0
 32 70  1  0  0  0
 33 34  1  0  0  0
 34 35  1  0  0  0
 35 36  1  0  0  0
 35 37  1  0  0  0
 35 71  1  0  0  0
 38 39  1  0  0  0
 38 43  2  0  0  0
 39 40  2  0  0  0
 39 72  1  0  0  0
 40 41  1  0  0  0
 41 42  2  0  0  0
 41 73  1  0  0  0
 42 43  1  0  0  0
 42 74  1  0  0  0
 44 75  1  0  0  0
M  END
> <chembl_id>
CHEMBL4110346

> <chembl_pref_name>
None

> <i_m_ct_stereo_status>
1

> <s_m_source_file>
sdf/actives_sanitized.sdf

> <i_m_source_file_index>
273

> <i_lp_mmshare_version>
49012

> <i_f3d_flags>
0

> <s_epik_input>
W0NIM11PQyg9TylbTkhdYyhbY0hdW2NIXTEpW2NIXWMoYzEyKVtOSF1DKD1PKVtDQEhdKFtDSDNdKVtDSDJdW0NIMl1bQ0gyXVtDQEBIXShjM1tjSF1jMltjSF1bY0hdbjMpTjRbQ0gyXVtDSDJdQyg9W0NIXUM0PU8pYzVbY0hdYyhDbClbY0hdW2NIXWM1T1tDSF0oRilG

> <s_epik_cmdline>
J2VwaWtfcHl0aG9uJywgJy1waHQnLCAnMC41JywgJy1waCcsICc3LjUnLCAnLW50JywgJy1tYScsICcyMDAnLCAnLWltYWUnLCAnPGluZmlsZS5tYWU+JywgJy1vbWFlJywgJzxvdXRmaWxlLm1hZT4n

> <r_lp_tautomer_probability>
1

> <r_epik_Ionization_Penalty>
  0.0001

> <r_epik_Ionization_Penalty_Charging>
  0.0000

> <r_epik_Ionization_Penalty_Neutral>
  0.0001

> <r_epik_State_Penalty>
 -0.0000

> <r_epik_Charging_Adjusted_Penalty>
0

> <i_epik_Tot_Q>
0

> <i_epik_Tot_abs_Q>
0

> <s_epik_Chemistry_Notes>
This compound has an ester and may undergo hydrolysis at high or low pH.

> <s_lp_Force_Field>
OPLS3e

> <r_lp_Energy>
99.786706

> <b_lp_Chiralities_Consistent>
1

> <s_lp_Variant>
sdf/actives_sanitized.sdf:273-1

$$$$
sdf/actives_sanitized.sdf:274
                    3D
 Schrodinger Suite 2020-1.
 74 78  0  0  1  0            999 V2000
   -2.9234    3.0826   -3.4899 C   0  0  0  0  0  0
   -3.6426    2.3661   -2.3286 C   0  0  2  0  0  0
   -5.1919    2.4555   -2.4627 C   0  0  0  0  0  0
   -5.8082    1.5640   -3.5738 C   0  0  0  0  0  0
   -7.2060    0.9760   -3.2368 C   0  0  0  0  0  0
   -7.2022   -0.3758   -2.4524 C   0  0  2  0  0  0
   -8.5551   -0.9544   -2.2552 N   0  0  0  0  0  0
   -9.7047   -0.0551   -1.9375 C   0  0  0  0  0  0
  -10.8444   -0.7675   -1.1594 C   0  0  0  0  0  0
  -11.1252   -2.1120   -1.8079 C   0  0  0  0  0  0
  -10.0730   -2.7999   -2.2945 C   0  0  0  0  0  0
   -8.7099   -2.3167   -2.3367 C   0  0  0  0  0  0
   -7.7757   -3.1143   -2.4387 O   0  0  0  0  0  0
  -12.4432   -2.7786   -1.6497 C   0  0  0  0  0  0
  -13.0648   -3.3916   -2.7523 C   0  0  0  0  0  0
  -12.4797   -3.3756   -3.9736 F   0  0  0  0  0  0
  -14.3047   -4.0147   -2.6148 C   0  0  0  0  0  0
  -14.9455   -4.0342   -1.3794 C   0  0  0  0  0  0
  -14.3469   -3.4305   -0.2756 C   0  0  0  0  0  0
  -15.1548   -3.4660    1.2517 Cl  0  0  0  0  0  0
  -13.1025   -2.8055   -0.4072 C   0  0  0  0  0  0
  -12.5332   -2.2418    0.6854 F   0  0  0  0  0  0
   -6.3801   -0.2914   -1.1636 C   0  0  0  0  0  0
   -5.0095   -0.5517   -1.2106 C   0  0  0  0  0  0
   -4.2126   -0.2096   -0.1154 C   0  0  0  0  0  0
   -4.8376    0.2588    1.0469 C   0  0  0  0  0  0
   -6.2271    0.4013    1.0535 C   0  0  0  0  0  0
   -6.9993    0.1532   -0.0354 N   0  0  0  0  0  0
   -2.7356   -0.2644   -0.2479 C   0  0  0  0  0  0
   -2.1172   -1.5087   -0.4094 C   0  0  0  0  0  0
   -0.7368   -1.6126   -0.5657 C   0  0  0  0  0  0
    0.0624   -0.4618   -0.5771 C   0  0  0  0  0  0
    1.4648   -0.4637   -0.7109 N   0  0  0  0  0  0
    2.3456   -1.3289   -1.3027 C   0  0  0  0  0  0
    2.0295   -2.6799   -2.2464 S   0  0  0  0  0  0
    3.6307   -0.8595   -1.1144 N   0  0  0  0  0  0
    4.4779   -1.3293   -0.2725 C   0  0  0  0  0  0
    4.2491   -2.3707    0.6021 O   0  0  0  0  0  0
    5.8784   -0.7586   -0.1804 C   0  0  0  0  0  0
   -0.5440    0.7842   -0.4022 C   0  0  0  0  0  0
   -1.9309    0.8961   -0.2628 C   0  0  0  0  0  0
   -2.4438    2.1917   -0.0876 N   0  0  0  0  0  0
   -3.1761    2.9246   -0.9575 C   0  0  0  0  0  0
   -3.4866    4.0767   -0.6568 O   0  0  0  0  0  0
   -1.8399    2.9804   -3.4107 H   0  0  0  0  0  0
   -3.1515    4.1494   -3.5123 H   0  0  0  0  0  0
   -3.2155    2.6632   -4.4532 H   0  0  0  0  0  0
   -3.3596    1.3182   -2.3955 H   0  0  0  0  0  0
   -5.6483    2.2014   -1.5068 H   0  0  0  0  0  0
   -5.4939    3.4918   -2.6255 H   0  0  0  0  0  0
   -5.8841    2.1636   -4.4822 H   0  0  0  0  0  0
   -5.1350    0.7471   -3.8359 H   0  0  0  0  0  0
   -7.7921    1.7336   -2.7162 H   0  0  0  0  0  0
   -7.7266    0.8053   -4.1804 H   0  0  0  0  0  0
   -6.6588   -1.0627   -3.1049 H   0  0  0  0  0  0
   -9.3827    0.8801   -1.4800 H   0  0  0  0  0  0
  -10.1210    0.2327   -2.9038 H   0  0  0  0  0  0
  -10.4983   -0.9245   -0.1368 H   0  0  0  0  0  0
  -11.7375   -0.1431   -1.1177 H   0  0  0  0  0  0
  -10.2308   -3.8056   -2.6585 H   0  0  0  0  0  0
  -14.7726   -4.4805   -3.4697 H   0  0  0  0  0  0
  -15.9062   -4.5183   -1.2809 H   0  0  0  0  0  0
   -4.5511   -0.8891   -2.1293 H   0  0  0  0  0  0
   -4.2573    0.5254    1.9181 H   0  0  0  0  0  0
   -6.7386    0.7617    1.9336 H   0  0  0  0  0  0
   -2.7119   -2.4111   -0.4048 H   0  0  0  0  0  0
   -0.3118   -2.5996   -0.6488 H   0  0  0  0  0  0
    1.8925    0.3711   -0.3376 H   0  0  0  0  0  0
    5.9521    0.2131   -0.6709 H   0  0  0  0  0  0
    6.5983   -1.4242   -0.6576 H   0  0  0  0  0  0
    6.1836   -0.6217    0.8574 H   0  0  0  0  0  0
    0.0657    1.6777   -0.3927 H   0  0  0  0  0  0
   -2.1288    2.6673    0.7453 H   0  0  0  0  0  0
    5.0367   -2.5423    1.1223 H   0  0  0  0  0  0
  1  2  1  0  0  0
  1 45  1  0  0  0
  1 46  1  0  0  0
  1 47  1  0  0  0
  2  3  1  0  0  0
  2 43  1  0  0  0
  2 48  1  0  0  0
  3  4  1  0  0  0
  3 49  1  0  0  0
  3 50  1  0  0  0
  4  5  1  0  0  0
  4 51  1  0  0  0
  4 52  1  0  0  0
  5  6  1  0  0  0
  5 53  1  0  0  0
  5 54  1  0  0  0
  6  7  1  0  0  0
  6 23  1  0  0  0
  6 55  1  0  0  0
  7  8  1  0  0  0
  7 12  1  0  0  0
  8  9  1  0  0  0
  8 56  1  0  0  0
  8 57  1  0  0  0
  9 10  1  0  0  0
  9 58  1  0  0  0
  9 59  1  0  0  0
 10 11  2  0  0  0
 10 14  1  0  0  0
 11 12  1  0  0  0
 11 60  1  0  0  0
 12 13  2  0  0  0
 14 15  2  0  0  0
 14 21  1  0  0  0
 15 16  1  0  0  0
 15 17  1  0  0  0
 17 18  2  0  0  0
 17 61  1  0  0  0
 18 19  1  0  0  0
 18 62  1  0  0  0
 19 20  1  0  0  0
 19 21  2  0  0  0
 21 22  1  0  0  0
 23 24  1  0  0  0
 23 28  2  0  0  0
 24 25  2  0  0  0
 24 63  1  0  0  0
 25 26  1  0  0  0
 25 29  1  0  0  0
 26 27  2  0  0  0
 26 64  1  0  0  0
 27 28  1  0  0  0
 27 65  1  0  0  0
 29 30  2  0  0  0
 29 41  1  0  0  0
 30 31  1  0  0  0
 30 66  1  0  0  0
 31 32  2  0  0  0
 31 67  1  0  0  0
 32 33  1  0  0  0
 32 40  1  0  0  0
 33 34  1  0  0  0
 33 68  1  0  0  0
 34 35  2  0  0  0
 34 36  1  0  0  0
 36 37  2  0  0  0
 37 38  1  0  0  0
 37 39  1  0  0  0
 38 74  1  0  0  0
 39 69  1  0  0  0
 39 70  1  0  0  0
 39 71  1  0  0  0
 40 41  2  0  0  0
 40 72  1  0  0  0
 41 42  1  0  0  0
 42 43  1  0  0  0
 42 73  1  0  0  0
 43 44  2  0  0  0
M  END
> <chembl_id>
CHEMBL4114612

> <chembl_pref_name>
None

> <i_m_ct_stereo_status>
1

> <s_m_source_file>
sdf/actives_sanitized.sdf

> <i_m_source_file_index>
274

> <i_lp_mmshare_version>
49012

> <i_f3d_flags>
0

> <s_epik_input>
Tz1DKFtDSDNdKVtOSF1DKD1TKVtOSF1jKFtjSF1bY0hdMSlbY0hdYyhjMWMoW2NIXWMyMylbY0hdW2NIXW4zKVtOSF1DKD1PKVtDQEhdKFtDSDNdKVtDSDJdW0NIMl1bQ0gyXVtDQEBIXTJONFtDSDJdW0NIMl1DKD1bQ0hdQzQ9TyljNWMoRilbY0hdW2NIXWMoQ2wpYzVG

> <s_epik_cmdline>
J2VwaWtfcHl0aG9uJywgJy1waHQnLCAnMC41JywgJy1waCcsICc3LjUnLCAnLW50JywgJy1tYScsICcyMDAnLCAnLWltYWUnLCAnPGluZmlsZS5tYWU+JywgJy1vbWFlJywgJzxvdXRmaWxlLm1hZT4n

> <r_epik_Ionization_Penalty>
  0.4488

> <r_epik_Ionization_Penalty_Charging>
  0.0000

> <r_epik_Ionization_Penalty_Neutral>
  0.4488

> <r_epik_State_Penalty>
  0.4818

> <r_epik_Charging_Adjusted_Penalty>
0.481826099389666

> <i_epik_Tot_Q>
0

> <i_epik_Tot_abs_Q>
0

> <s_epik_Chemistry_Notes>
This compound has an imine and may undergo hydrolysis.

> <s_lp_Force_Field>
OPLS3e

> <r_lp_Energy>
107.439747

> <b_lp_Chiralities_Consistent>
1

> <s_lp_Variant>
sdf/actives_sanitized.sdf:274-1

$$$$
sdf/actives_sanitized.sdf:274
                    3D
 Schrodinger Suite 2020-1.
 74 78  0  0  1  0            999 V2000
   -5.1924    2.6604   -0.7747 C   0  0  0  0  0  0
   -3.8993    1.8160   -0.8120 C   0  0  2  0  0  0
   -2.9674    2.2118    0.3864 C   0  0  0  0  0  0
   -1.8774    1.2025    0.8426 C   0  0  0  0  0  0
   -0.5743    1.1542   -0.0017 C   0  0  0  0  0  0
    0.1080   -0.2531   -0.1046 C   0  0  2  0  0  0
    1.5877   -0.1473   -0.0735 N   0  0  0  0  0  0
    2.2521    0.7839   -1.0314 C   0  0  0  0  0  0
    3.7091    0.3604   -1.3583 C   0  0  0  0  0  0
    4.4299    0.0392   -0.0591 C   0  0  0  0  0  0
    3.7209   -0.5711    0.9130 C   0  0  0  0  0  0
    2.3037   -0.8607    0.8552 C   0  0  0  0  0  0
    1.8170   -1.7154    1.5973 O   0  0  0  0  0  0
    5.9104    0.1233    0.0357 C   0  0  0  0  0  0
    6.7337   -0.3473   -1.0026 C   0  0  0  0  0  0
    6.2027   -0.9158   -2.1105 F   0  0  0  0  0  0
    8.1220   -0.2552   -0.9057 C   0  0  0  0  0  0
    8.7112    0.3055    0.2237 C   0  0  0  0  0  0
    7.9126    0.7783    1.2623 C   0  0  0  0  0  0
    8.6582    1.4751    2.6571 Cl  0  0  0  0  0  0
    6.5201    0.6910    1.1699 C   0  0  0  0  0  0
    5.7612    1.1771    2.1823 F   0  0  0  0  0  0
   -0.4320   -1.0754   -1.2975 C   0  0  0  0  0  0
   -1.7927   -1.0424   -1.5907 C   0  0  0  0  0  0
   -2.2860   -1.6029   -2.7634 C   0  0  0  0  0  0
   -1.3992   -2.3180   -3.5756 C   0  0  0  0  0  0
   -0.0534   -2.3839   -3.1978 C   0  0  0  0  0  0
    0.4388   -1.7623   -2.0919 N   0  0  0  0  0  0
   -3.7155   -1.3718   -3.0990 C   0  0  0  0  0  0
   -4.5749   -2.4636   -3.2603 C   0  0  0  0  0  0
   -5.9382   -2.2740   -3.4807 C   0  0  0  0  0  0
   -6.4685   -0.9796   -3.5408 C   0  0  0  0  0  0
   -7.8309   -0.7324   -3.7843 N   0  0  0  0  0  0
   -8.9621   -1.2364   -3.2004 C   0  0  0  0  0  0
   -8.9470   -2.2822   -1.8746 S   0  0  0  0  0  0
  -10.0725   -0.7474   -3.8442 N   0  0  0  0  0  0
  -11.4050   -0.9220   -3.6528 C   0  0  0  0  0  0
  -11.9318   -1.6119   -2.7787 O   0  0  0  0  0  0
  -12.3071   -0.1761   -4.6318 C   0  0  0  0  0  0
   -5.6156    0.1194   -3.4318 C   0  0  0  0  0  0
   -4.2493   -0.0662   -3.1971 C   0  0  0  0  0  0
   -3.4117    1.0633   -3.1936 N   0  0  0  0  0  0
   -3.2309    1.9691   -2.2051 C   0  0  0  0  0  0
   -2.5187    2.9496   -2.4175 O   0  0  0  0  0  0
   -5.8860    2.3819   -1.5682 H   0  0  0  0  0  0
   -4.9823    3.7255   -0.8852 H   0  0  0  0  0  0
   -5.7244    2.5262    0.1678 H   0  0  0  0  0  0
   -4.2088    0.7812   -0.6670 H   0  0  0  0  0  0
   -2.5160    3.1912    0.2187 H   0  0  0  0  0  0
   -3.6070    2.3583    1.2585 H   0  0  0  0  0  0
   -1.5846    1.4674    1.8599 H   0  0  0  0  0  0
   -2.3251    0.2174    0.9648 H   0  0  0  0  0  0
   -0.7480    1.5361   -1.0064 H   0  0  0  0  0  0
    0.1153    1.8762    0.4388 H   0  0  0  0  0  0
   -0.2262   -0.8115    0.7712 H   0  0  0  0  0  0
    1.6313    0.9888   -1.9042 H   0  0  0  0  0  0
    2.3310    1.7368   -0.5059 H   0  0  0  0  0  0
    3.6633   -0.5343   -1.9810 H   0  0  0  0  0  0
    4.2228    1.1378   -1.9245 H   0  0  0  0  0  0
    4.2365   -0.9072    1.8018 H   0  0  0  0  0  0
    8.7443   -0.6234   -1.7081 H   0  0  0  0  0  0
    9.7874    0.3730    0.2906 H   0  0  0  0  0  0
   -2.4829   -0.5286   -0.9539 H   0  0  0  0  0  0
   -1.7367   -2.7877   -4.4878 H   0  0  0  0  0  0
    0.6620   -2.9194   -3.8043 H   0  0  0  0  0  0
   -4.1893   -3.4706   -3.1916 H   0  0  0  0  0  0
   -6.5758   -3.1372   -3.6045 H   0  0  0  0  0  0
   -7.9871    0.0460   -4.4080 H   0  0  0  0  0  0
   -9.8566   -0.1401   -4.6210 H   0  0  0  0  0  0
  -11.7307    0.4205   -5.3398 H   0  0  0  0  0  0
  -12.9772    0.4921   -4.0906 H   0  0  0  0  0  0
  -12.9132   -0.8844   -5.1972 H   0  0  0  0  0  0
   -6.0121    1.1196   -3.5374 H   0  0  0  0  0  0
   -2.8632    1.1925   -4.0314 H   0  0  0  0  0  0
  1  2  1  0  0  0
  1 45  1  0  0  0
  1 46  1  0  0  0
  1 47  1  0  0  0
  2  3  1  0  0  0
  2 43  1  0  0  0
  2 48  1  0  0  0
  3  4  1  0  0  0
  3 49  1  0  0  0
  3 50  1  0  0  0
  4  5  1  0  0  0
  4 51  1  0  0  0
  4 52  1  0  0  0
  5  6  1  0  0  0
  5 53  1  0  0  0
  5 54  1  0  0  0
  6  7  1  0  0  0
  6 23  1  0  0  0
  6 55  1  0  0  0
  7  8  1  0  0  0
  7 12  1  0  0  0
  8  9  1  0  0  0
  8 56  1  0  0  0
  8 57  1  0  0  0
  9 10  1  0  0  0
  9 58  1  0  0  0
  9 59  1  0  0  0
 10 11  2  0  0  0
 10 14  1  0  0  0
 11 12  1  0  0  0
 11 60  1  0  0  0
 12 13  2  0  0  0
 14 15  2  0  0  0
 14 21  1  0  0  0
 15 16  1  0  0  0
 15 17  1  0  0  0
 17 18  2  0  0  0
 17 61  1  0  0  0
 18 19  1  0  0  0
 18 62  1  0  0  0
 19 20  1  0  0  0
 19 21  2  0  0  0
 21 22  1  0  0  0
 23 24  1  0  0  0
 23 28  2  0  0  0
 24 25  2  0  0  0
 24 63  1  0  0  0
 25 26  1  0  0  0
 25 29  1  0  0  0
 26 27  2  0  0  0
 26 64  1  0  0  0
 27 28  1  0  0  0
 27 65  1  0  0  0
 29 30  2  0  0  0
 29 41  1  0  0  0
 30 31  1  0  0  0
 30 66  1  0  0  0
 31 32  2  0  0  0
 31 67  1  0  0  0
 32 33  1  0  0  0
 32 40  1  0  0  0
 33 34  1  0  0  0
 33 68  1  0  0  0
 34 35  2  0  0  0
 34 36  1  0  0  0
 36 37  1  0  0  0
 36 69  1  0  0  0
 37 38  2  0  0  0
 37 39  1  0  0  0
 39 70  1  0  0  0
 39 71  1  0  0  0
 39 72  1  0  0  0
 40 41  2  0  0  0
 40 73  1  0  0  0
 41 42  1  0  0  0
 42 43  1  0  0  0
 42 74  1  0  0  0
 43 44  2  0  0  0
M  END
> <chembl_id>
CHEMBL4114612

> <chembl_pref_name>
None

> <i_m_ct_stereo_status>
1

> <s_m_source_file>
sdf/actives_sanitized.sdf

> <i_m_source_file_index>
274

> <i_lp_mmshare_version>
49012

> <i_f3d_flags>
0

> <s_epik_input>
Tz1DKFtDSDNdKVtOSF1DKD1TKVtOSF1jKFtjSF1bY0hdMSlbY0hdYyhjMWMoW2NIXWMyMylbY0hdW2NIXW4zKVtOSF1DKD1PKVtDQEhdKFtDSDNdKVtDSDJdW0NIMl1bQ0gyXVtDQEBIXTJONFtDSDJdW0NIMl1DKD1bQ0hdQzQ9TyljNWMoRilbY0hdW2NIXWMoQ2wpYzVG

> <s_epik_cmdline>
J2VwaWtfcHl0aG9uJywgJy1waHQnLCAnMC41JywgJy1waCcsICc3LjUnLCAnLW50JywgJy1tYScsICcyMDAnLCAnLWltYWUnLCAnPGluZmlsZS5tYWU+JywgJy1vbWFlJywgJzxvdXRmaWxlLm1hZT4n

> <r_epik_Ionization_Penalty>
  0.3287

> <r_epik_Ionization_Penalty_Charging>
  0.0000

> <r_epik_Ionization_Penalty_Neutral>
  0.3287

> <r_epik_State_Penalty>
  0.6707

> <r_epik_Charging_Adjusted_Penalty>
0.670747763390203

> <i_epik_Tot_Q>
0

> <i_epik_Tot_abs_Q>
0

> <s_lp_Force_Field>
OPLS3e

> <r_lp_Energy>
115.076015

> <b_lp_Chiralities_Consistent>
1

> <s_lp_Variant>
sdf/actives_sanitized.sdf:274-2

$$$$
sdf/actives_sanitized.sdf:275
                    3D
 Schrodinger Suite 2020-1.
 61 65  0  0  1  0            999 V2000
   -5.2602    1.7525   -0.9239 C   0  0  0  0  0  0
   -4.1463    0.9555   -1.6330 C   0  0  2  0  0  0
   -2.7765    1.6949   -1.5749 C   0  0  0  0  0  0
   -2.0840    1.6978   -0.1855 C   0  0  0  0  0  0
   -0.5332    1.6095   -0.2325 C   0  0  0  0  0  0
    0.0567    0.1610   -0.2665 C   0  0  2  0  0  0
    1.5418    0.0931   -0.1613 N   0  0  0  0  0  0
    2.3981    1.0096   -0.7456 C   0  0  0  0  0  0
    3.7424    0.9787   -0.6724 C   0  0  0  0  0  0
    4.3558   -0.1071    0.0831 C   0  0  0  0  0  0
    3.5206   -1.0177    0.6497 C   0  0  0  0  0  0
    2.0634   -1.0058    0.5038 C   0  0  0  0  0  0
    1.3977   -1.9454    0.9453 O   0  0  0  0  0  0
    5.8270   -0.1771    0.2619 C   0  0  0  0  0  0
    6.5489    0.9928    0.5391 C   0  0  0  0  0  0
    7.9362    0.9651    0.6736 C   0  0  0  0  0  0
    8.6268   -0.2332    0.5133 C   0  0  0  0  0  0
    7.9314   -1.4034    0.2124 C   0  0  0  0  0  0
    8.8060   -2.8783   -0.0025 Cl  0  0  0  0  0  0
    6.5390   -1.3770    0.0786 C   0  0  0  0  0  0
    5.8863   -2.5195   -0.2462 F   0  0  0  0  0  0
   -0.5041   -0.6419   -1.4434 C   0  0  0  0  0  0
   -1.6829   -1.3698   -1.2742 C   0  0  0  0  0  0
   -2.3434   -1.8673   -2.4001 C   0  0  0  0  0  0
   -1.7283   -1.7337   -3.6510 C   0  0  0  0  0  0
   -0.4989   -1.0755   -3.7298 C   0  0  0  0  0  0
    0.1076   -0.5139   -2.6527 N   0  0  0  0  0  0
   -3.7062   -2.4348   -2.2503 C   0  0  0  0  0  0
   -3.8679   -3.6217   -1.5244 C   0  0  0  0  0  0
   -5.1296   -4.1837   -1.3388 C   0  0  0  0  0  0
   -6.2538   -3.5622   -1.8757 C   0  0  0  0  0  0
   -6.1168   -2.3760   -2.5933 C   0  0  0  0  0  0
   -4.8558   -1.7973   -2.7712 C   0  0  0  0  0  0
   -4.8080   -0.6151   -3.5276 N   0  0  0  0  0  0
   -4.5382    0.6405   -3.1016 C   0  0  0  0  0  0
   -4.6049    1.5713   -3.9037 O   0  0  0  0  0  0
   -6.2105    1.2167   -0.9480 H   0  0  0  0  0  0
   -5.4215    2.7261   -1.3891 H   0  0  0  0  0  0
   -5.0153    1.9239    0.1248 H   0  0  0  0  0  0
   -4.0480    0.0197   -1.0878 H   0  0  0  0  0  0
   -2.1026    1.2531   -2.3081 H   0  0  0  0  0  0
   -2.8933    2.7242   -1.9187 H   0  0  0  0  0  0
   -2.3726    2.6139    0.3318 H   0  0  0  0  0  0
   -2.4668    0.8921    0.4419 H   0  0  0  0  0  0
   -0.1775    2.2054   -1.0731 H   0  0  0  0  0  0
   -0.1463    2.1024    0.6607 H   0  0  0  0  0  0
   -0.3459   -0.3111    0.6324 H   0  0  0  0  0  0
    1.8878    1.7488   -1.3419 H   0  0  0  0  0  0
    4.3408    1.7155   -1.1886 H   0  0  0  0  0  0
    3.9382   -1.8197    1.2415 H   0  0  0  0  0  0
    6.0331    1.9339    0.6653 H   0  0  0  0  0  0
    8.4755    1.8734    0.8991 H   0  0  0  0  0  0
    9.7022   -0.2508    0.6149 H   0  0  0  0  0  0
   -2.1483   -1.4330   -0.3009 H   0  0  0  0  0  0
   -2.2028   -2.1128   -4.5446 H   0  0  0  0  0  0
   -0.0004   -0.9533   -4.6799 H   0  0  0  0  0  0
   -3.0058   -4.1179   -1.1017 H   0  0  0  0  0  0
   -5.2346   -5.1021   -0.7803 H   0  0  0  0  0  0
   -7.2313   -3.9998   -1.7361 H   0  0  0  0  0  0
   -6.9986   -1.9059   -3.0052 H   0  0  0  0  0  0
   -5.1258   -0.7056   -4.4815 H   0  0  0  0  0  0
  1  2  1  0  0  0
  1 37  1  0  0  0
  1 38  1  0  0  0
  1 39  1  0  0  0
  2  3  1  0  0  0
  2 35  1  0  0  0
  2 40  1  0  0  0
  3  4  1  0  0  0
  3 41  1  0  0  0
  3 42  1  0  0  0
  4  5  1  0  0  0
  4 43  1  0  0  0
  4 44  1  0  0  0
  5  6  1  0  0  0
  5 45  1  0  0  0
  5 46  1  0  0  0
  6  7  1  0  0  0
  6 22  1  0  0  0
  6 47  1  0  0  0
  7  8  1  0  0  0
  7 12  1  0  0  0
  8  9  2  0  0  0
  8 48  1  0  0  0
  9 10  1  0  0  0
  9 49  1  0  0  0
 10 11  2  0  0  0
 10 14  1  0  0  0
 11 12  1  0  0  0
 11 50  1  0  0  0
 12 13  2  0  0  0
 14 15  2  0  0  0
 14 20  1  0  0  0
 15 16  1  0  0  0
 15 51  1  0  0  0
 16 17  2  0  0  0
 16 52  1  0  0  0
 17 18  1  0  0  0
 17 53  1  0  0  0
 18 19  1  0  0  0
 18 20  2  0  0  0
 20 21  1  0  0  0
 22 23  1  0  0  0
 22 27  2  0  0  0
 23 24  2  0  0  0
 23 54  1  0  0  0
 24 25  1  0  0  0
 24 28  1  0  0  0
 25 26  2  0  0  0
 25 55  1  0  0  0
 26 27  1  0  0  0
 26 56  1  0  0  0
 28 29  2  0  0  0
 28 33  1  0  0  0
 29 30  1  0  0  0
 29 57  1  0  0  0
 30 31  2  0  0  0
 30 58  1  0  0  0
 31 32  1  0  0  0
 31 59  1  0  0  0
 32 33  2  0  0  0
 32 60  1  0  0  0
 33 34  1  0  0  0
 34 35  1  0  0  0
 34 61  1  0  0  0
 35 36  2  0  0  0
M  END
> <chembl_id>
CHEMBL4109625

> <chembl_pref_name>
None

> <i_m_ct_stereo_status>
1

> <s_m_source_file>
sdf/actives_sanitized.sdf

> <i_m_source_file_index>
275

> <i_lp_mmshare_version>
49012

> <i_f3d_flags>
0

> <s_epik_input>
bjFbY0hdW2NIXWMoW2NIXWMxMiljM2MoW2NIXVtjSF1bY0hdW2NIXTMpW05IXUMoPU8pW0NASF0oW0NIM10pW0NIMl1bQ0gyXVtDSDJdW0NAQEhdMm40W2NIXVtjSF1jKFtjSF1jND1PKS1jNVtjSF1bY0hdW2NIXWMoQ2wpYzVG

> <s_epik_cmdline>
J2VwaWtfcHl0aG9uJywgJy1waHQnLCAnMC41JywgJy1waCcsICc3LjUnLCAnLW50JywgJy1tYScsICcyMDAnLCAnLWltYWUnLCAnPGluZmlsZS5tYWU+JywgJy1vbWFlJywgJzxvdXRmaWxlLm1hZT4n

> <r_lp_tautomer_probability>
1

> <r_epik_Ionization_Penalty>
  0.0073

> <r_epik_Ionization_Penalty_Charging>
  0.0000

> <r_epik_Ionization_Penalty_Neutral>
  0.0073

> <r_epik_State_Penalty>
 -0.0000

> <r_epik_Charging_Adjusted_Penalty>
3.64357097057384e-07

> <i_epik_Tot_Q>
0

> <i_epik_Tot_abs_Q>
0

> <s_lp_Force_Field>
OPLS3e

> <r_lp_Energy>
86.774821

> <b_lp_Chiralities_Consistent>
1

> <s_lp_Variant>
sdf/actives_sanitized.sdf:275-1

$$$$
sdf/actives_sanitized.sdf:276
                    3D
 Schrodinger Suite 2020-1.
 71 76  0  0  1  0            999 V2000
   -5.2733    1.7003   -0.9400 C   0  0  0  0  0  0
   -4.1417    0.9092   -1.6276 C   0  0  2  0  0  0
   -2.7628    1.6170   -1.4753 C   0  0  0  0  0  0
   -2.1287    1.5241   -0.0617 C   0  0  0  0  0  0
   -0.5773    1.4414   -0.0497 C   0  0  0  0  0  0
    0.0324    0.0081   -0.1832 C   0  0  2  0  0  0
    1.5132   -0.0165   -0.0809 N   0  0  0  0  0  0
    2.3154    1.0471   -0.7566 C   0  0  0  0  0  0
    3.7457    0.5813   -1.1412 C   0  0  0  0  0  0
    4.3589   -0.1572    0.0349 C   0  0  0  0  0  0
    3.5460   -0.9321    0.7800 C   0  0  0  0  0  0
    2.1143   -1.0447    0.6033 C   0  0  0  0  0  0
    1.5131   -2.0241    1.0488 O   0  0  0  0  0  0
    5.8303   -0.2741    0.1782 C   0  0  0  0  0  0
    6.6394   -0.6246   -0.9161 C   0  0  0  0  0  0
    6.0958   -0.8837   -2.1285 F   0  0  0  0  0  0
    8.0222   -0.7319   -0.7695 C   0  0  0  0  0  0
    8.6176   -0.4915    0.4658 C   0  0  0  0  0  0
    7.8309   -0.1409    1.5611 C   0  0  0  0  0  0
    8.5844    0.1579    3.0872 Cl  0  0  0  0  0  0
    6.4440   -0.0310    1.4197 C   0  0  0  0  0  0
    5.6951    0.3259    2.4919 F   0  0  0  0  0  0
   -0.5059   -0.7405   -1.4064 C   0  0  0  0  0  0
   -1.6996   -1.4559   -1.2967 C   0  0  0  0  0  0
   -2.3322   -1.9093   -2.4567 C   0  0  0  0  0  0
   -1.6759   -1.7498   -3.6833 C   0  0  0  0  0  0
   -0.4341   -1.1106   -3.7039 C   0  0  0  0  0  0
    0.1463   -0.5902   -2.5924 N   0  0  0  0  0  0
   -3.7079   -2.4576   -2.3643 C   0  0  0  0  0  0
   -3.9105   -3.6625   -1.6807 C   0  0  0  0  0  0
   -5.1841   -4.2165   -1.5369 C   0  0  0  0  0  0
   -5.4469   -5.5415   -0.8343 C   0  0  0  0  0  0
   -6.8342   -5.5523   -0.1314 C   0  0  0  0  0  0
   -7.9806   -4.9816   -1.0101 C   0  0  0  0  0  0
   -9.1581   -5.3131   -0.8945 O   0  0  0  0  0  0
   -7.5717   -4.0441   -1.8924 N   0  0  0  0  0  0
   -6.2826   -3.5365   -2.0727 C   0  0  0  0  0  0
   -6.1060   -2.3361   -2.7594 C   0  0  0  0  0  0
   -4.8299   -1.7834   -2.8949 C   0  0  0  0  0  0
   -4.7379   -0.5772   -3.6079 N   0  0  0  0  0  0
   -4.4710    0.6575   -3.1237 C   0  0  0  0  0  0
   -4.4893    1.6190   -3.8913 O   0  0  0  0  0  0
   -6.2308    1.1845   -1.0283 H   0  0  0  0  0  0
   -5.3950    2.6941   -1.3737 H   0  0  0  0  0  0
   -5.0747    1.8277    0.1244 H   0  0  0  0  0  0
   -4.0850   -0.0488   -1.1158 H   0  0  0  0  0  0
   -2.0672    1.2043   -2.2051 H   0  0  0  0  0  0
   -2.8468    2.6664   -1.7639 H   0  0  0  0  0  0
   -2.4429    2.4012    0.5058 H   0  0  0  0  0  0
   -2.5327    0.6759    0.4920 H   0  0  0  0  0  0
   -0.1836    2.1116   -0.8141 H   0  0  0  0  0  0
   -0.2335    1.8535    0.9004 H   0  0  0  0  0  0
   -0.3552   -0.5305    0.6841 H   0  0  0  0  0  0
    1.7737    1.5126   -1.5798 H   0  0  0  0  0  0
    2.4348    1.8368   -0.0134 H   0  0  0  0  0  0
    3.6557   -0.0989   -1.9891 H   0  0  0  0  0  0
    4.3605    1.4254   -1.4553 H   0  0  0  0  0  0
    3.9811   -1.5532    1.5506 H   0  0  0  0  0  0
    8.6345   -1.0069   -1.6158 H   0  0  0  0  0  0
    9.6893   -0.5781    0.5709 H   0  0  0  0  0  0
   -2.1947   -1.5435   -0.3403 H   0  0  0  0  0  0
   -2.1276   -2.0949   -4.6019 H   0  0  0  0  0  0
    0.0969   -0.9706   -4.6339 H   0  0  0  0  0  0
   -3.0619   -4.1853   -1.2623 H   0  0  0  0  0  0
   -5.4105   -6.3459   -1.5705 H   0  0  0  0  0  0
   -4.6590   -5.7588   -0.1117 H   0  0  0  0  0  0
   -7.0989   -6.5665    0.1701 H   0  0  0  0  0  0
   -6.7990   -4.9473    0.7755 H   0  0  0  0  0  0
   -8.3230   -3.6187   -2.4158 H   0  0  0  0  0  0
   -6.9648   -1.8215   -3.1690 H   0  0  0  0  0  0
   -5.0143   -0.6298   -4.5776 H   0  0  0  0  0  0
  1  2  1  0  0  0
  1 43  1  0  0  0
  1 44  1  0  0  0
  1 45  1  0  0  0
  2  3  1  0  0  0
  2 41  1  0  0  0
  2 46  1  0  0  0
  3  4  1  0  0  0
  3 47  1  0  0  0
  3 48  1  0  0  0
  4  5  1  0  0  0
  4 49  1  0  0  0
  4 50  1  0  0  0
  5  6  1  0  0  0
  5 51  1  0  0  0
  5 52  1  0  0  0
  6  7  1  0  0  0
  6 23  1  0  0  0
  6 53  1  0  0  0
  7  8  1  0  0  0
  7 12  1  0  0  0
  8  9  1  0  0  0
  8 54  1  0  0  0
  8 55  1  0  0  0
  9 10  1  0  0  0
  9 56  1  0  0  0
  9 57  1  0  0  0
 10 11  2  0  0  0
 10 14  1  0  0  0
 11 12  1  0  0  0
 11 58  1  0  0  0
 12 13  2  0  0  0
 14 15  2  0  0  0
 14 21  1  0  0  0
 15 16  1  0  0  0
 15 17  1  0  0  0
 17 18  2  0  0  0
 17 59  1  0  0  0
 18 19  1  0  0  0
 18 60  1  0  0  0
 19 20  1  0  0  0
 19 21  2  0  0  0
 21 22  1  0  0  0
 23 24  1  0  0  0
 23 28  2  0  0  0
 24 25  2  0  0  0
 24 61  1  0  0  0
 25 26  1  0  0  0
 25 29  1  0  0  0
 26 27  2  0  0  0
 26 62  1  0  0  0
 27 28  1  0  0  0
 27 63  1  0  0  0
 29 30  2  0  0  0
 29 39  1  0  0  0
 30 31  1  0  0  0
 30 64  1  0  0  0
 31 32  1  0  0  0
 31 37  2  0  0  0
 32 33  1  0  0  0
 32 65  1  0  0  0
 32 66  1  0  0  0
 33 34  1  0  0  0
 33 67  1  0  0  0
 33 68  1  0  0  0
 34 35  2  0  0  0
 34 36  1  0  0  0
 36 37  1  0  0  0
 36 69  1  0  0  0
 37 38  1  0  0  0
 38 39  2  0  0  0
 38 70  1  0  0  0
 39 40  1  0  0  0
 40 41  1  0  0  0
 40 71  1  0  0  0
 41 42  2  0  0  0
M  END
> <chembl_id>
CHEMBL4114872

> <chembl_pref_name>
None

> <i_m_ct_stereo_status>
1

> <s_m_source_file>
sdf/actives_sanitized.sdf

> <i_m_source_file_index>
276

> <i_lp_mmshare_version>
49012

> <i_f3d_flags>
0

> <s_epik_input>
Tz1DKFtOSF0xKVtDSDJdW0NIMl1jKFtjSF0yKWMxW2NIXWMoYzJjKFtjSF1jMzQpW2NIXVtjSF1uNClbTkhdQyg9TylbQ0BIXShbQ0gzXSlbQ0gyXVtDSDJdW0NIMl1bQ0BASF0zTjVbQ0gyXVtDSDJdQyg9W0NIXUM1PU8pYzZjKEYpW2NIXVtjSF1jKENsKWM2Rg==

> <s_epik_cmdline>
J2VwaWtfcHl0aG9uJywgJy1waHQnLCAnMC41JywgJy1waCcsICc3LjUnLCAnLW50JywgJy1tYScsICcyMDAnLCAnLWltYWUnLCAnPGluZmlsZS5tYWU+JywgJy1vbWFlJywgJzxvdXRmaWxlLm1hZT4n

> <r_lp_tautomer_probability>
1

> <r_epik_Ionization_Penalty>
  0.0002

> <r_epik_Ionization_Penalty_Charging>
  0.0000

> <r_epik_Ionization_Penalty_Neutral>
  0.0002

> <r_epik_State_Penalty>
 -0.0000

> <r_epik_Charging_Adjusted_Penalty>
0

> <i_epik_Tot_Q>
0

> <i_epik_Tot_abs_Q>
0

> <s_lp_Force_Field>
OPLS3e

> <r_lp_Energy>
96.677497

> <b_lp_Chiralities_Consistent>
1

> <s_lp_Variant>
sdf/actives_sanitized.sdf:276-1

$$$$
sdf/actives_sanitized.sdf:277
                    3D
 Schrodinger Suite 2020-1.
 69 73  0  0  1  0            999 V2000
   -0.5494   -0.4263    1.5204 C   0  0  0  0  0  0
   -0.0771    0.0023    0.1147 C   0  0  0  0  0  0
   -0.9209   -0.6985   -0.9737 C   0  0  0  0  0  0
    1.4723   -0.1251   -0.0579 C   0  0  2  0  0  0
    2.0193    0.5834   -1.3367 C   0  0  0  0  0  0
    1.9480    2.1337   -1.3138 C   0  0  0  0  0  0
    3.1228    2.8487   -2.0352 C   0  0  0  0  0  0
    4.3976    3.1150   -1.1695 C   0  0  2  0  0  0
    5.4461    3.8833   -1.8871 N   0  0  0  0  0  0
    5.7389    3.5688   -3.3175 C   0  0  0  0  0  0
    7.1909    3.9253   -3.7354 C   0  0  0  0  0  0
    7.5304    5.3104   -3.2135 C   0  0  0  0  0  0
    7.0443    5.6567   -2.0045 C   0  0  0  0  0  0
    6.1464    4.8493   -1.2065 C   0  0  0  0  0  0
    6.0515    5.0475    0.0061 O   0  0  0  0  0  0
    8.5858    6.1317   -3.8592 C   0  0  0  0  0  0
    8.3732    7.5015   -4.0955 C   0  0  0  0  0  0
    7.2042    8.0902   -3.7471 F   0  0  0  0  0  0
    9.3551    8.2782   -4.7094 C   0  0  0  0  0  0
   10.5610    7.7030   -5.0995 C   0  0  0  0  0  0
   10.7893    6.3469   -4.8762 C   0  0  0  0  0  0
   12.2921    5.6484   -5.3663 Cl  0  0  0  0  0  0
    9.8088    5.5631   -4.2593 C   0  0  0  0  0  0
   10.0618    4.2506   -4.0380 F   0  0  0  0  0  0
    4.9241    1.8400   -0.5027 C   0  0  0  0  0  0
    4.4017    1.4471    0.7312 C   0  0  0  0  0  0
    4.6713    0.1614    1.2082 C   0  0  0  0  0  0
    5.5716   -0.6408    0.4966 C   0  0  0  0  0  0
    6.1348   -0.1413   -0.6796 C   0  0  0  0  0  0
    5.8100    1.0718   -1.1952 N   0  0  0  0  0  0
    3.9304   -0.3490    2.3892 C   0  0  0  0  0  0
    4.1505    0.2464    3.6376 C   0  0  0  0  0  0
    3.4643   -0.1871    4.7708 C   0  0  0  0  0  0
    2.5428   -1.2260    4.6718 C   0  0  0  0  0  0
    2.3013   -1.8262    3.4382 C   0  0  0  0  0  0
    2.9723   -1.3849    2.2932 C   0  0  0  0  0  0
    2.6796   -2.0552    1.0944 N   0  0  0  0  0  0
    2.0031   -1.5874    0.0200 C   0  0  0  0  0  0
    1.8057   -2.3391   -0.9335 O   0  0  0  0  0  0
   -0.3995   -1.4932    1.6892 H   0  0  0  0  0  0
   -1.6106   -0.2181    1.6613 H   0  0  0  0  0  0
   -0.0087    0.1112    2.3003 H   0  0  0  0  0  0
   -0.3106    1.0658    0.0423 H   0  0  0  0  0  0
   -0.8062   -1.7821   -0.9437 H   0  0  0  0  0  0
   -0.6561   -0.3624   -1.9753 H   0  0  0  0  0  0
   -1.9820   -0.4849   -0.8406 H   0  0  0  0  0  0
    1.8930    0.4228    0.7811 H   0  0  0  0  0  0
    3.0553    0.2832   -1.4900 H   0  0  0  0  0  0
    1.5159    0.2124   -2.2297 H   0  0  0  0  0  0
    1.0084    2.4336   -1.7803 H   0  0  0  0  0  0
    1.8821    2.5061   -0.2910 H   0  0  0  0  0  0
    3.3686    2.2943   -2.9411 H   0  0  0  0  0  0
    2.7552    3.8164   -2.3800 H   0  0  0  0  0  0
    4.0422    3.7472   -0.3531 H   0  0  0  0  0  0
    5.4445    2.5543   -3.5852 H   0  0  0  0  0  0
    5.0800    4.2170   -3.8970 H   0  0  0  0  0  0
    7.8560    3.1922   -3.2767 H   0  0  0  0  0  0
    7.3128    3.8583   -4.8170 H   0  0  0  0  0  0
    7.3620    6.5909   -1.5629 H   0  0  0  0  0  0
    9.1792    9.3288   -4.8888 H   0  0  0  0  0  0
   11.3164    8.3108   -5.5760 H   0  0  0  0  0  0
    3.6909    2.0775    1.2462 H   0  0  0  0  0  0
    5.8124   -1.6377    0.8364 H   0  0  0  0  0  0
    6.8316   -0.7364   -1.2512 H   0  0  0  0  0  0
    4.8646    1.0519    3.7336 H   0  0  0  0  0  0
    3.6497    0.2812    5.7261 H   0  0  0  0  0  0
    2.0146   -1.5658    5.5506 H   0  0  0  0  0  0
    1.5817   -2.6303    3.3759 H   0  0  0  0  0  0
    2.9155   -3.0368    1.0844 H   0  0  0  0  0  0
  1  2  1  0  0  0
  1 40  1  0  0  0
  1 41  1  0  0  0
  1 42  1  0  0  0
  2  3  1  0  0  0
  2  4  1  0  0  0
  2 43  1  0  0  0
  3 44  1  0  0  0
  3 45  1  0  0  0
  3 46  1  0  0  0
  4  5  1  0  0  0
  4 38  1  0  0  0
  4 47  1  0  0  0
  5  6  1  0  0  0
  5 48  1  0  0  0
  5 49  1  0  0  0
  6  7  1  0  0  0
  6 50  1  0  0  0
  6 51  1  0  0  0
  7  8  1  0  0  0
  7 52  1  0  0  0
  7 53  1  0  0  0
  8  9  1  0  0  0
  8 25  1  0  0  0
  8 54  1  0  0  0
  9 10  1  0  0  0
  9 14  1  0  0  0
 10 11  1  0  0  0
 10 55  1  0  0  0
 10 56  1  0  0  0
 11 12  1  0  0  0
 11 57  1  0  0  0
 11 58  1  0  0  0
 12 13  2  0  0  0
 12 16  1  0  0  0
 13 14  1  0  0  0
 13 59  1  0  0  0
 14 15  2  0  0  0
 16 17  2  0  0  0
 16 23  1  0  0  0
 17 18  1  0  0  0
 17 19  1  0  0  0
 19 20  2  0  0  0
 19 60  1  0  0  0
 20 21  1  0  0  0
 20 61  1  0  0  0
 21 22  1  0  0  0
 21 23  2  0  0  0
 23 24  1  0  0  0
 25 26  1  0  0  0
 25 30  2  0  0  0
 26 27  2  0  0  0
 26 62  1  0  0  0
 27 28  1  0  0  0
 27 31  1  0  0  0
 28 29  2  0  0  0
 28 63  1  0  0  0
 29 30  1  0  0  0
 29 64  1  0  0  0
 31 32  2  0  0  0
 31 36  1  0  0  0
 32 33  1  0  0  0
 32 65  1  0  0  0
 33 34  2  0  0  0
 33 66  1  0  0  0
 34 35  1  0  0  0
 34 67  1  0  0  0
 35 36  2  0  0  0
 35 68  1  0  0  0
 36 37  1  0  0  0
 37 38  1  0  0  0
 37 69  1  0  0  0
 38 39  2  0  0  0
M  END
> <chembl_id>
CHEMBL3951440

> <chembl_pref_name>
None

> <i_m_ct_stereo_status>
1

> <s_m_source_file>
sdf/actives_sanitized.sdf

> <i_m_source_file_index>
277

> <i_lp_mmshare_version>
49012

> <i_f3d_flags>
0

> <s_epik_input>
bjFbY0hdW2NIXWMoW2NIXWMxMiljM2MoW2NIXVtjSF1bY0hdW2NIXTMpW05IXUMoPU8pW0NASF0oW0NIXShbQ0gzXSlbQ0gzXSlbQ0gyXVtDSDJdW0NIMl1bQ0BASF0yTjRbQ0gyXVtDSDJdQyg9W0NIXUM0PU8pYzVjKEYpW2NIXVtjSF1jKENsKWM1Rg==

> <s_epik_cmdline>
J2VwaWtfcHl0aG9uJywgJy1waHQnLCAnMC41JywgJy1waCcsICc3LjUnLCAnLW50JywgJy1tYScsICcyMDAnLCAnLWltYWUnLCAnPGluZmlsZS5tYWU+JywgJy1vbWFlJywgJzxvdXRmaWxlLm1hZT4n

> <r_lp_tautomer_probability>
1

> <r_epik_Ionization_Penalty>
  0.0001

> <r_epik_Ionization_Penalty_Charging>
  0.0000

> <r_epik_Ionization_Penalty_Neutral>
  0.0001

> <r_epik_State_Penalty>
 -0.0000

> <r_epik_Charging_Adjusted_Penalty>
0

> <i_epik_Tot_Q>
0

> <i_epik_Tot_abs_Q>
0

> <s_lp_Force_Field>
OPLS3e

> <r_lp_Energy>
94.634876

> <b_lp_Chiralities_Consistent>
1

> <s_lp_Variant>
sdf/actives_sanitized.sdf:277-1

$$$$
sdf/actives_sanitized.sdf:278
                    3D
 Schrodinger Suite 2020-1.
 52 56  0  0  1  0            999 V2000
   -0.5451   -1.7998    5.7635 C   0  0  0  0  0  0
   -0.3876   -0.6264    6.4964 C   0  0  0  0  0  0
   -0.2649    0.5981    5.8413 C   0  0  0  0  0  0
   -0.5843   -1.7785    4.3673 C   0  0  0  0  0  0
   -0.4603   -0.5495    3.6870 C   0  0  0  0  0  0
   -0.3034    0.6145    4.4645 N   0  0  0  0  0  0
   -0.2031    1.7240    3.6924 N   0  0  0  0  0  0
   -0.4462   -0.0874    2.3448 C   0  0  0  0  0  0
   -0.2850    1.3050    2.4484 C   0  0  0  0  0  0
   -0.2114    2.2327    1.2402 C   0  0  0  0  0  0
   -0.7267    1.4542    0.0051 C   0  0  0  0  0  0
   -0.0528    0.0550   -0.1487 C   0  0  1  0  0  0
   -0.6023   -0.8267    1.0148 C   0  0  0  0  0  0
   -0.4753   -0.5983   -1.4903 C   0  0  0  0  0  0
    1.4233    0.0718   -0.0996 N   0  0  0  0  0  0
    2.2820    0.7576   -0.8827 C   0  0  0  0  0  0
    3.7457    0.5418   -0.5765 C   0  0  0  0  0  0
    1.9279    1.5124   -1.7892 O   0  0  0  0  0  0
   -0.7406   -2.9435    3.6626 O   0  0  0  0  0  0
    4.2109   -0.7572   -0.3160 C   0  0  0  0  0  0
    5.5528   -0.9965   -0.0289 C   0  0  0  0  0  0
    6.4621    0.0639    0.0131 C   0  0  0  0  0  0
    6.0088    1.3640   -0.2324 C   0  0  0  0  0  0
    4.6649    1.6116   -0.5218 C   0  0  0  0  0  0
    7.8217   -0.1752    0.3057 N   0  0  0  0  0  0
    8.5718   -1.3059    0.0660 C   0  0  0  0  0  0
    9.8089   -1.1743    0.4744 N   0  0  0  0  0  0
    9.9166    0.1007    1.0205 N   0  0  0  0  0  0
    8.7386    0.6610    0.9045 C   0  0  0  0  0  0
    4.2009    3.2641   -0.7723 Cl  0  0  0  0  0  0
   -0.0931    1.8976    6.6151 C   0  0  0  0  0  0
   -0.6389   -2.7390    6.2896 H   0  0  0  0  0  0
   -0.3621   -0.6730    7.5758 H   0  0  0  0  0  0
   -0.8108    3.1316    1.3893 H   0  0  0  0  0  0
    0.8159    2.5601    1.0754 H   0  0  0  0  0  0
   -1.8141    1.3605    0.0300 H   0  0  0  0  0  0
   -0.5056    2.0687   -0.8685 H   0  0  0  0  0  0
   -0.0816   -1.7854    1.0425 H   0  0  0  0  0  0
   -1.6561   -1.0641    0.8601 H   0  0  0  0  0  0
   -1.5595   -0.6929   -1.5617 H   0  0  0  0  0  0
   -0.0566   -1.5999   -1.5997 H   0  0  0  0  0  0
   -0.1554   -0.0146   -2.3539 H   0  0  0  0  0  0
    1.8244   -0.4724    0.6499 H   0  0  0  0  0  0
   -0.8162   -3.7175    4.2256 H   0  0  0  0  0  0
    3.5349   -1.6003   -0.3438 H   0  0  0  0  0  0
    5.8726   -2.0099    0.1657 H   0  0  0  0  0  0
    6.6984    2.1956   -0.2019 H   0  0  0  0  0  0
    8.1377   -2.1694   -0.4165 H   0  0  0  0  0  0
    8.4583    1.6516    1.2308 H   0  0  0  0  0  0
   -0.0733    1.7270    7.6921 H   0  0  0  0  0  0
   -0.9146    2.5811    6.3974 H   0  0  0  0  0  0
    0.8402    2.3867    6.3339 H   0  0  0  0  0  0
  1  2  1  0  0  0
  1  4  2  0  0  0
  1 32  1  0  0  0
  2  3  2  0  0  0
  2 33  1  0  0  0
  3  6  1  0  0  0
  3 31  1  0  0  0
  4  5  1  0  0  0
  4 19  1  0  0  0
  5  6  1  0  0  0
  5  8  2  0  0  0
  6  7  1  0  0  0
  7  9  2  0  0  0
  8  9  1  0  0  0
  8 13  1  0  0  0
  9 10  1  0  0  0
 10 11  1  0  0  0
 10 34  1  0  0  0
 10 35  1  0  0  0
 11 12  1  0  0  0
 11 36  1  0  0  0
 11 37  1  0  0  0
 12 13  1  0  0  0
 12 14  1  0  0  0
 12 15  1  0  0  0
 13 38  1  0  0  0
 13 39  1  0  0  0
 14 40  1  0  0  0
 14 41  1  0  0  0
 14 42  1  0  0  0
 15 16  1  0  0  0
 15 43  1  0  0  0
 16 17  1  0  0  0
 16 18  2  0  0  0
 17 20  2  0  0  0
 17 24  1  0  0  0
 19 44  1  0  0  0
 20 21  1  0  0  0
 20 45  1  0  0  0
 21 22  2  0  0  0
 21 46  1  0  0  0
 22 23  1  0  0  0
 22 25  1  0  0  0
 23 24  2  0  0  0
 23 47  1  0  0  0
 24 30  1  0  0  0
 25 26  1  0  0  0
 25 29  1  0  0  0
 26 27  2  0  0  0
 26 48  1  0  0  0
 27 28  1  0  0  0
 28 29  2  0  0  0
 29 49  1  0  0  0
 31 50  1  0  0  0
 31 51  1  0  0  0
 31 52  1  0  0  0
M  END
> <chembl_id>
CHEMBL3423050

> <chembl_pref_name>
None

> <s_m_source_file>
sdf/actives_sanitized.sdf

> <i_m_source_file_index>
278

> <i_lp_mmshare_version>
49012

> <i_m_ct_stereo_status>
1

> <i_f3d_flags>
0

> <s_epik_input>
W09IXWMxW2NIXVtjSF1jKFtDSDNdKW4oYzEyKW5jM2MyW0NIMl1bQ0BAXShbQ0gzXSkoW0NIMl1bQ0gyXTMpW05IXUMoPU8pYzRbY0hdW2NIXWMoW2NIXWM0Q2wpLW41W2NIXW5uW2NIXTU=

> <s_epik_cmdline>
J2VwaWtfcHl0aG9uJywgJy1waHQnLCAnMC41JywgJy1waCcsICc3LjUnLCAnLW50JywgJy1tYScsICcyMDAnLCAnLWltYWUnLCAnPGluZmlsZS5tYWU+JywgJy1vbWFlJywgJzxvdXRmaWxlLm1hZT4n

> <r_lp_tautomer_probability>
1

> <r_epik_Ionization_Penalty>
  0.0172

> <r_epik_Ionization_Penalty_Charging>
  0.0000

> <r_epik_Ionization_Penalty_Neutral>
  0.0172

> <r_epik_State_Penalty>
  0.0136

> <r_epik_Charging_Adjusted_Penalty>
0.0135721177526746

> <i_epik_Tot_Q>
0

> <i_epik_Tot_abs_Q>
0

> <s_lp_Force_Field>
OPLS3e

> <r_lp_Energy>
34.104529

> <b_lp_Chiralities_Consistent>
1

> <s_lp_Variant>
sdf/actives_sanitized.sdf:278-1

$$$$
sdf/actives_sanitized.sdf:279
                    3D
 Schrodinger Suite 2020-1.
 64 69  0  0  1  0            999 V2000
   -0.4718    1.5825    0.1404 C   0  0  0  0  0  0
    0.0458    2.5060   -0.7832 C   0  0  0  0  0  0
   -0.4027    3.8238   -0.8162 C   0  0  0  0  0  0
   -1.3934    4.2440    0.0666 C   0  0  0  0  0  0
   -1.9466    3.3460    0.9853 C   0  0  0  0  0  0
   -1.4857    2.0237    1.0091 C   0  0  0  0  0  0
   -0.4558   -5.4498   -3.6001 C   0  0  0  0  0  0
   -0.2303   -5.4388   -2.2245 C   0  0  0  0  0  0
   -0.6778   -3.0243   -3.5907 C   0  0  0  0  0  0
   -0.6772   -4.2451   -4.2716 C   0  0  0  0  0  0
   -0.4498   -3.0084   -2.2017 C   0  0  0  0  0  0
   -0.2319   -4.2397   -1.5616 N   0  0  0  0  0  0
   -0.0353   -4.0967   -0.2331 N   0  0  0  0  0  0
   -0.3712   -2.0502   -1.1607 C   0  0  0  0  0  0
   -0.1190   -2.8029   -0.0031 C   0  0  0  0  0  0
    0.0406   -2.1853    1.3778 C   0  0  0  0  0  0
   -0.4839   -0.7280    1.3476 C   0  0  0  0  0  0
    0.0335    0.1079    0.1255 C   0  0  1  0  0  0
   -0.5555   -0.5367   -1.1715 C   0  0  0  0  0  0
    1.5137    0.1116    0.0575 N   0  0  0  0  0  0
    2.3695    0.6352    0.9592 C   0  0  0  0  0  0
    3.8238    0.4416    0.6268 C   0  0  0  0  0  0
    2.0353    1.2571    1.9675 O   0  0  0  0  0  0
    4.5469   -0.6354    1.1751 C   0  0  0  0  0  0
    5.8952   -0.8060    0.8598 C   0  0  0  0  0  0
    6.5519    0.0841    0.0011 C   0  0  0  0  0  0
    5.8338    1.1574   -0.5360 C   0  0  0  0  0  0
    4.4856    1.3432   -0.2299 C   0  0  0  0  0  0
    3.6861    2.7108   -0.9372 Cl  0  0  0  0  0  0
    7.9207   -0.0902   -0.3238 N   0  0  0  0  0  0
    8.6484    0.4350   -1.3630 C   0  0  0  0  0  0
    9.8909    0.0315   -1.3131 N   0  0  0  0  0  0
    9.8909   -0.7439   -0.2401 C   0  0  0  0  0  0
    8.7474   -0.8575    0.4033 N   0  0  0  0  0  0
   11.1473   -1.4362    0.2391 C   0  0  0  0  0  0
   -0.4563   -6.7668   -4.3539 C   0  0  0  0  0  0
    3.8266   -1.7854    2.2547 Cl  0  0  0  0  0  0
   -3.0418    3.7886    1.9548 C   0  0  0  0  0  0
   -3.9910    2.8558    2.0513 F   0  0  0  0  0  0
   -2.5047    3.9765    3.1600 F   0  0  0  0  0  0
   -3.6214    4.9282    1.5723 F   0  0  0  0  0  0
    0.8069    2.2014   -1.4865 H   0  0  0  0  0  0
    0.0164    4.5184   -1.5292 H   0  0  0  0  0  0
   -1.7283    5.2704    0.0281 H   0  0  0  0  0  0
   -1.9299    1.3509    1.7258 H   0  0  0  0  0  0
   -0.0545   -6.3309   -1.6399 H   0  0  0  0  0  0
   -0.8528   -2.1044   -4.1287 H   0  0  0  0  0  0
   -0.8536   -4.2490   -5.3378 H   0  0  0  0  0  0
   -0.4951   -2.7581    2.1357 H   0  0  0  0  0  0
    1.0903   -2.1890    1.6664 H   0  0  0  0  0  0
   -1.5737   -0.7822    1.3150 H   0  0  0  0  0  0
   -0.2411   -0.2355    2.2901 H   0  0  0  0  0  0
   -0.0876   -0.1062   -2.0587 H   0  0  0  0  0  0
   -1.6210   -0.3168   -1.2604 H   0  0  0  0  0  0
    1.9046   -0.5866   -0.5579 H   0  0  0  0  0  0
    6.4269   -1.6428    1.2903 H   0  0  0  0  0  0
    6.3161    1.8674   -1.1915 H   0  0  0  0  0  0
    8.2010    1.0861   -2.0992 H   0  0  0  0  0  0
   11.0864   -1.7869    1.2700 H   0  0  0  0  0  0
   11.9851   -0.7382    0.2246 H   0  0  0  0  0  0
   11.4539   -2.2445   -0.4252 H   0  0  0  0  0  0
   -0.5874   -6.6278   -5.4278 H   0  0  0  0  0  0
   -1.2553   -7.4119   -3.9865 H   0  0  0  0  0  0
    0.4863   -7.2908   -4.1923 H   0  0  0  0  0  0
  1  2  2  0  0  0
  1  6  1  0  0  0
  1 18  1  0  0  0
  2  3  1  0  0  0
  2 42  1  0  0  0
  3  4  2  0  0  0
  3 43  1  0  0  0
  4  5  1  0  0  0
  4 44  1  0  0  0
  5  6  2  0  0  0
  5 38  1  0  0  0
  6 45  1  0  0  0
  7  8  2  0  0  0
  7 10  1  0  0  0
  7 36  1  0  0  0
  8 12  1  0  0  0
  8 46  1  0  0  0
  9 11  1  0  0  0
  9 10  2  0  0  0
  9 47  1  0  0  0
 10 48  1  0  0  0
 11 12  1  0  0  0
 11 14  2  0  0  0
 12 13  1  0  0  0
 13 15  2  0  0  0
 14 15  1  0  0  0
 14 19  1  0  0  0
 15 16  1  0  0  0
 16 17  1  0  0  0
 16 49  1  0  0  0
 16 50  1  0  0  0
 17 18  1  0  0  0
 17 51  1  0  0  0
 17 52  1  0  0  0
 18 19  1  0  0  0
 18 20  1  0  0  0
 19 53  1  0  0  0
 19 54  1  0  0  0
 20 21  1  0  0  0
 20 55  1  0  0  0
 21 22  1  0  0  0
 21 23  2  0  0  0
 22 24  2  0  0  0
 22 28  1  0  0  0
 24 25  1  0  0  0
 24 37  1  0  0  0
 25 26  2  0  0  0
 25 56  1  0  0  0
 26 27  1  0  0  0
 26 30  1  0  0  0
 27 28  2  0  0  0
 27 57  1  0  0  0
 28 29  1  0  0  0
 30 31  1  0  0  0
 30 34  1  0  0  0
 31 32  2  0  0  0
 31 58  1  0  0  0
 32 33  1  0  0  0
 33 34  2  0  0  0
 33 35  1  0  0  0
 35 59  1  0  0  0
 35 60  1  0  0  0
 35 61  1  0  0  0
 36 62  1  0  0  0
 36 63  1  0  0  0
 36 64  1  0  0  0
 38 39  1  0  0  0
 38 40  1  0  0  0
 38 41  1  0  0  0
M  END
> <chembl_id>
CHEMBL3628950

> <chembl_pref_name>
None

> <i_m_ct_stereo_status>
1

> <s_m_source_file>
sdf/actives_sanitized.sdf

> <i_m_source_file_index>
279

> <i_lp_mmshare_version>
49012

> <i_f3d_flags>
0

> <s_epik_input>
W2NIXTFbY0hdYyhbQ0gzXSlbY0hdbihjMTIpbmMzYzJbQ0gyXVtDQF0oW0NIMl1bQ0gyXTMpKGM0W2NIXVtjSF1bY0hdYyhbY0hdNClDKEYpKEYpRilbTkhdQyg9TyljNWMoQ2wpW2NIXWMoW2NIXWM1Q2wpLW42W2NIXW5jKG42KVtDSDNd

> <s_epik_cmdline>
J2VwaWtfcHl0aG9uJywgJy1waHQnLCAnMC41JywgJy1waCcsICc3LjUnLCAnLW50JywgJy1tYScsICcyMDAnLCAnLWltYWUnLCAnPGluZmlsZS5tYWU+JywgJy1vbWFlJywgJzxvdXRmaWxlLm1hZT4n

> <r_lp_tautomer_probability>
1

> <r_epik_Ionization_Penalty>
  0.0001

> <r_epik_Ionization_Penalty_Charging>
  0.0000

> <r_epik_Ionization_Penalty_Neutral>
  0.0001

> <r_epik_State_Penalty>
 -0.0000

> <r_epik_Charging_Adjusted_Penalty>
0

> <i_epik_Tot_Q>
0

> <i_epik_Tot_abs_Q>
0

> <s_lp_Force_Field>
OPLS3e

> <r_lp_Energy>
38.961923

> <b_lp_Chiralities_Consistent>
1

> <s_lp_Variant>
sdf/actives_sanitized.sdf:279-1

$$$$
sdf/actives_sanitized.sdf:280
                    3D
 Schrodinger Suite 2020-1.
 77 81  0  0  1  0            999 V2000
   -3.2076    1.5276    0.3881 C   0  0  0  0  0  0
   -2.0915    0.7598   -0.0418 O   0  0  0  0  0  0
   -0.8384    1.1015    0.3196 C   0  0  0  0  0  0
   -0.5592    2.0633    1.0392 O   0  0  0  0  0  0
    0.0459    0.1849   -0.2417 N   0  0  0  0  0  0
    1.4488    0.1585   -0.1778 C   0  0  0  0  0  0
    2.0743   -1.0205   -0.5884 C   0  0  0  0  0  0
    3.4633   -1.1348   -0.5556 C   0  0  0  0  0  0
    4.2601   -0.0757   -0.1095 C   0  0  0  0  0  0
    3.6311    1.1281    0.2813 C   0  0  0  0  0  0
    4.3833    2.2763    0.5871 N   0  0  0  0  0  0
    4.6022    2.8362    1.7989 C   0  0  0  0  0  0
    5.2055    3.9067    1.8615 O   0  0  0  0  0  0
    4.1162    2.1725    3.1153 C   0  0  2  0  0  0
    2.7759    2.8118    3.5424 C   0  0  0  0  0  0
    5.1543    2.2604    4.2889 C   0  0  0  0  0  0
    6.3670    1.2874    4.2805 C   0  0  0  0  0  0
    7.5546    1.6590    3.3495 C   0  0  0  0  0  0
    8.3303    0.4475    2.7262 C   0  0  2  0  0  0
    9.7908    0.7088    2.6555 N   0  0  0  0  0  0
   10.2617    1.9512    1.9786 C   0  0  0  0  0  0
   11.6771    2.3850    2.4438 C   0  0  0  0  0  0
   12.6010    1.1764    2.4566 C   0  0  0  0  0  0
   12.0642   -0.0348    2.7015 C   0  0  0  0  0  0
   10.6703   -0.2893    2.9965 C   0  0  0  0  0  0
   10.3427   -1.3341    3.5616 O   0  0  0  0  0  0
   14.0996    1.3856    2.2420 C   0  0  0  0  0  0
   14.7157    2.3765    3.2539 C   0  0  0  0  0  0
   16.2520    2.3890    3.0972 C   0  0  0  0  0  0
   16.6770    2.7072    1.6429 C   0  0  0  0  0  0
   15.9614    1.8201    0.5953 C   0  0  0  0  0  0
   14.4312    1.8226    0.7985 C   0  0  0  0  0  0
    7.7068   -0.0249    1.3902 C   0  0  0  0  0  0
    6.3216   -0.0400    1.2470 C   0  0  0  0  0  0
    5.7316   -0.2570    0.0065 C   0  0  0  0  0  0
    6.5624   -0.5944   -1.0674 C   0  0  0  0  0  0
    7.9444   -0.6400   -0.8538 C   0  0  0  0  0  0
    8.5206   -0.3435    0.3425 N   0  0  0  0  0  0
    2.2377    1.2411    0.2384 C   0  0  0  0  0  0
   -4.1287    1.0890    0.0037 H   0  0  0  0  0  0
   -3.1416    2.5535    0.0220 H   0  0  0  0  0  0
   -3.2718    1.5516    1.4773 H   0  0  0  0  0  0
   -0.3755   -0.5734   -0.7579 H   0  0  0  0  0  0
    1.4870   -1.8628   -0.9260 H   0  0  0  0  0  0
    3.9208   -2.0662   -0.8568 H   0  0  0  0  0  0
    4.8230    2.7232   -0.2042 H   0  0  0  0  0  0
    3.9043    1.1186    2.9364 H   0  0  0  0  0  0
    2.0154    2.7254    2.7658 H   0  0  0  0  0  0
    2.8880    3.8730    3.7708 H   0  0  0  0  0  0
    2.3721    2.3255    4.4311 H   0  0  0  0  0  0
    5.5054    3.2855    4.4194 H   0  0  0  0  0  0
    4.6156    2.0432    5.2129 H   0  0  0  0  0  0
    6.7640    1.2428    5.2961 H   0  0  0  0  0  0
    6.0141    0.2714    4.1099 H   0  0  0  0  0  0
    7.2274    2.3171    2.5467 H   0  0  0  0  0  0
    8.2358    2.2772    3.9372 H   0  0  0  0  0  0
    8.1608   -0.3866    3.4091 H   0  0  0  0  0  0
   10.4006    1.6637    0.9352 H   0  0  0  0  0  0
    9.5150    2.7444    1.9501 H   0  0  0  0  0  0
   12.0618    3.1859    1.8127 H   0  0  0  0  0  0
   11.6077    2.7874    3.4552 H   0  0  0  0  0  0
   12.7198   -0.8936    2.7245 H   0  0  0  0  0  0
   14.5826    0.4190    2.4040 H   0  0  0  0  0  0
   14.3416    3.3866    3.0778 H   0  0  0  0  0  0
   14.4535    2.1013    4.2766 H   0  0  0  0  0  0
   16.6898    3.1186    3.7794 H   0  0  0  0  0  0
   16.6572    1.4193    3.3907 H   0  0  0  0  0  0
   16.4555    3.7544    1.4303 H   0  0  0  0  0  0
   17.7576    2.6022    1.5409 H   0  0  0  0  0  0
   16.2038    2.1648   -0.4106 H   0  0  0  0  0  0
   16.3381    0.7983    0.6640 H   0  0  0  0  0  0
   14.0607    2.8305    0.6051 H   0  0  0  0  0  0
   13.9633    1.1552    0.0732 H   0  0  0  0  0  0
    5.6784    0.1821    2.0732 H   0  0  0  0  0  0
    6.1523   -0.7907   -2.0474 H   0  0  0  0  0  0
    8.6171   -0.8885   -1.6615 H   0  0  0  0  0  0
    1.7905    2.1873    0.5001 H   0  0  0  0  0  0
  1  2  1  0  0  0
  1 40  1  0  0  0
  1 41  1  0  0  0
  1 42  1  0  0  0
  2  3  1  0  0  0
  3  4  2  0  0  0
  3  5  1  0  0  0
  5  6  1  0  0  0
  5 43  1  0  0  0
  6  7  2  0  0  0
  6 39  1  0  0  0
  7  8  1  0  0  0
  7 44  1  0  0  0
  8  9  2  0  0  0
  8 45  1  0  0  0
  9 10  1  0  0  0
  9 35  1  0  0  0
 10 11  1  0  0  0
 10 39  2  0  0  0
 11 12  1  0  0  0
 11 46  1  0  0  0
 12 13  2  0  0  0
 12 14  1  0  0  0
 14 15  1  0  0  0
 14 16  1  0  0  0
 14 47  1  0  0  0
 15 48  1  0  0  0
 15 49  1  0  0  0
 15 50  1  0  0  0
 16 17  1  0  0  0
 16 51  1  0  0  0
 16 52  1  0  0  0
 17 18  1  0  0  0
 17 53  1  0  0  0
 17 54  1  0  0  0
 18 19  1  0  0  0
 18 55  1  0  0  0
 18 56  1  0  0  0
 19 20  1  0  0  0
 19 33  1  0  0  0
 19 57  1  0  0  0
 20 21  1  0  0  0
 20 25  1  0  0  0
 21 22  1  0  0  0
 21 58  1  0  0  0
 21 59  1  0  0  0
 22 23  1  0  0  0
 22 60  1  0  0  0
 22 61  1  0  0  0
 23 24  2  0  0  0
 23 27  1  0  0  0
 24 25  1  0  0  0
 24 62  1  0  0  0
 25 26  2  0  0  0
 27 28  1  0  0  0
 27 32  1  0  0  0
 27 63  1  0  0  0
 28 29  1  0  0  0
 28 64  1  0  0  0
 28 65  1  0  0  0
 29 30  1  0  0  0
 29 66  1  0  0  0
 29 67  1  0  0  0
 30 31  1  0  0  0
 30 68  1  0  0  0
 30 69  1  0  0  0
 31 32  1  0  0  0
 31 70  1  0  0  0
 31 71  1  0  0  0
 32 72  1  0  0  0
 32 73  1  0  0  0
 33 34  1  0  0  0
 33 38  2  0  0  0
 34 35  2  0  0  0
 34 74  1  0  0  0
 35 36  1  0  0  0
 36 37  2  0  0  0
 36 75  1  0  0  0
 37 38  1  0  0  0
 37 76  1  0  0  0
 39 77  1  0  0  0
M  END
> <chembl_id>
CHEMBL4115226

> <chembl_pref_name>
None

> <i_m_ct_stereo_status>
1

> <s_m_source_file>
sdf/actives_sanitized.sdf

> <i_m_source_file_index>
280

> <i_lp_mmshare_version>
49012

> <i_f3d_flags>
0

> <s_epik_input>
W0NIM11PQyg9TylbTkhdYyhbY0hdW2NIXTEpW2NIXWMoYzEyKVtOSF1DKD1PKVtDQEhdKFtDSDNdKVtDSDJdW0NIMl1bQ0gyXVtDQEBIXShjM1tjSF1jMltjSF1bY0hdbjMpTjRbQ0gyXVtDSDJdQyg9W0NIXUM0PU8pW0NIXTVbQ0gyXVtDSDJdW0NIMl1bQ0gyXVtDSDJdNQ==

> <s_epik_cmdline>
J2VwaWtfcHl0aG9uJywgJy1waHQnLCAnMC41JywgJy1waCcsICc3LjUnLCAnLW50JywgJy1tYScsICcyMDAnLCAnLWltYWUnLCAnPGluZmlsZS5tYWU+JywgJy1vbWFlJywgJzxvdXRmaWxlLm1hZT4n

> <r_lp_tautomer_probability>
1

> <r_epik_Ionization_Penalty>
  0.0001

> <r_epik_Ionization_Penalty_Charging>
  0.0000

> <r_epik_Ionization_Penalty_Neutral>
  0.0001

> <r_epik_State_Penalty>
 -0.0000

> <r_epik_Charging_Adjusted_Penalty>
0

> <i_epik_Tot_Q>
0

> <i_epik_Tot_abs_Q>
0

> <s_epik_Chemistry_Notes>
This compound has an ester and may undergo hydrolysis at high or low pH.

> <s_lp_Force_Field>
OPLS3e

> <r_lp_Energy>
85.811422

> <b_lp_Chiralities_Consistent>
1

> <s_lp_Variant>
sdf/actives_sanitized.sdf:280-1

$$$$
sdf/actives_sanitized.sdf:281
                    3D
 Schrodinger Suite 2020-1.
 86 91  0  0  1  0            999 V2000
   -4.3693    1.1807    2.8148 C   0  0  0  0  0  0
   -4.6158    2.6010    2.2644 C   0  0  2  0  0  0
   -5.6869    3.3364    3.1357 C   0  0  0  0  0  0
   -5.9975    4.8142    2.7756 C   0  0  0  0  0  0
   -5.0838    5.8668    3.4612 C   0  0  0  0  0  0
   -4.6950    7.1171    2.6059 C   0  0  2  0  0  0
   -5.8003    8.1061    2.5027 N   0  0  0  0  0  0
   -7.0680    7.7062    1.8258 C   0  0  0  0  0  0
   -7.8390    8.9209    1.2452 C   0  0  0  0  0  0
   -7.9242   10.0031    2.3088 C   0  0  0  0  0  0
   -6.8620   10.1596    3.1253 C   0  0  0  0  0  0
   -5.6807    9.3219    3.1315 C   0  0  0  0  0  0
   -4.6446    9.7324    3.6571 O   0  0  0  0  0  0
   -8.9930   11.0349    2.2659 C   0  0  0  0  0  0
   -9.3802   11.6314    1.0524 C   0  0  0  0  0  0
   -8.7747   11.3001   -0.1120 F   0  0  0  0  0  0
  -10.3875   12.5956    1.0237 C   0  0  0  0  0  0
  -11.0243   12.9809    2.1998 C   0  0  0  0  0  0
  -10.6574   12.3997    3.4114 C   0  0  0  0  0  0
  -11.4605   12.8845    4.8627 Cl  0  0  0  0  0  0
   -9.6499   11.4306    3.4462 C   0  0  0  0  0  0
   -9.3234   10.8627    4.6329 F   0  0  0  0  0  0
   -4.0247    6.7398    1.2686 C   0  0  0  0  0  0
   -3.1545    5.6485    1.2184 C   0  0  0  0  0  0
   -2.7208    5.1629   -0.0126 C   0  0  0  0  0  0
   -3.0680    5.8644   -1.1712 C   0  0  0  0  0  0
   -3.8687    7.0026   -1.0472 C   0  0  0  0  0  0
   -4.3608    7.4334    0.1438 N   0  0  0  0  0  0
   -1.9889    3.8768   -0.0492 C   0  0  0  0  0  0
   -0.5925    3.8755   -0.0012 C   0  0  0  0  0  0
    0.1194    2.6776    0.0227 C   0  0  0  0  0  0
   -0.5550    1.4494   -0.0010 C   0  0  0  0  0  0
    0.1096    0.2114    0.0133 N   0  0  0  0  0  0
    1.5311    0.0608   -0.1000 C   0  0  2  0  0  0
    2.0181    0.3881   -1.3758 O   0  0  0  0  0  0
    3.4497    0.4511   -1.4425 C   0  0  2  0  0  0
    3.8386    0.9775   -2.8404 C   0  0  0  0  0  0
    3.3956    2.3085   -3.0158 O   0  0  0  0  0  0
    4.0520   -0.9454   -1.1353 C   0  0  1  0  0  0
    5.4695   -0.9067   -1.1134 O   0  0  0  0  0  0
    3.4825   -1.5005    0.1912 C   0  0  2  0  0  0
    3.9322   -2.8177    0.4639 O   0  0  0  0  0  0
    1.9384   -1.3899    0.2338 C   0  0  2  0  0  0
    1.3034   -2.3462   -0.6057 O   0  0  0  0  0  0
   -1.9505    1.4442   -0.0544 C   0  0  0  0  0  0
   -2.6696    2.6434   -0.0702 C   0  0  0  0  0  0
   -4.0629    2.5778   -0.2170 N   0  0  0  0  0  0
   -4.9951    2.5227    0.7595 C   0  0  0  0  0  0
   -6.1788    2.3947    0.4484 O   0  0  0  0  0  0
   -3.5851    0.6620    2.2618 H   0  0  0  0  0  0
   -5.2686    0.5647    2.7613 H   0  0  0  0  0  0
   -4.0546    1.2125    3.8585 H   0  0  0  0  0  0
   -3.6769    3.1392    2.3674 H   0  0  0  0  0  0
   -6.6209    2.7737    3.0805 H   0  0  0  0  0  0
   -5.3992    3.2873    4.1872 H   0  0  0  0  0  0
   -5.9848    4.9315    1.6932 H   0  0  0  0  0  0
   -7.0278    5.0298    3.0615 H   0  0  0  0  0  0
   -5.5566    6.1991    4.3867 H   0  0  0  0  0  0
   -4.1703    5.3842    3.8081 H   0  0  0  0  0  0
   -3.8708    7.5726    3.1567 H   0  0  0  0  0  0
   -6.9279    6.8856    1.1230 H   0  0  0  0  0  0
   -7.7065    7.3082    2.6160 H   0  0  0  0  0  0
   -7.2769    9.2927    0.3873 H   0  0  0  0  0  0
   -8.8271    8.6234    0.8931 H   0  0  0  0  0  0
   -6.8542   10.9925    3.8146 H   0  0  0  0  0  0
  -10.6732   13.0499    0.0862 H   0  0  0  0  0  0
  -11.8021   13.7300    2.1686 H   0  0  0  0  0  0
   -2.8688    5.1279    2.1177 H   0  0  0  0  0  0
   -2.7444    5.5243   -2.1441 H   0  0  0  0  0  0
   -4.1584    7.5688   -1.9200 H   0  0  0  0  0  0
   -0.0516    4.8106    0.0252 H   0  0  0  0  0  0
    1.1975    2.7249    0.0533 H   0  0  0  0  0  0
   -0.4275   -0.5598   -0.3572 H   0  0  0  0  0  0
    1.9865    0.7823    0.5813 H   0  0  0  0  0  0
    3.8130    1.1649   -0.6983 H   0  0  0  0  0  0
    4.9209    0.9692   -2.9734 H   0  0  0  0  0  0
    3.4166    0.3489   -3.6253 H   0  0  0  0  0  0
    3.6367    2.5972   -3.8991 H   0  0  0  0  0  0
    3.7816   -1.6266   -1.9443 H   0  0  0  0  0  0
    5.7512   -0.3836   -0.3592 H   0  0  0  0  0  0
    3.8780   -0.8938    1.0083 H   0  0  0  0  0  0
    4.4538   -2.8039    1.2700 H   0  0  0  0  0  0
    1.5948   -1.6042    1.2478 H   0  0  0  0  0  0
    1.7990   -2.4069   -1.4257 H   0  0  0  0  0  0
   -2.4818    0.5030   -0.0933 H   0  0  0  0  0  0
   -4.3948    2.5361   -1.1695 H   0  0  0  0  0  0
  1  2  1  0  0  0
  1 50  1  0  0  0
  1 51  1  0  0  0
  1 52  1  0  0  0
  2  3  1  0  0  0
  2 48  1  0  0  0
  2 53  1  0  0  0
  3  4  1  0  0  0
  3 54  1  0  0  0
  3 55  1  0  0  0
  4  5  1  0  0  0
  4 56  1  0  0  0
  4 57  1  0  0  0
  5  6  1  0  0  0
  5 58  1  0  0  0
  5 59  1  0  0  0
  6  7  1  0  0  0
  6 23  1  0  0  0
  6 60  1  0  0  0
  7  8  1  0  0  0
  7 12  1  0  0  0
  8  9  1  0  0  0
  8 61  1  0  0  0
  8 62  1  0  0  0
  9 10  1  0  0  0
  9 63  1  0  0  0
  9 64  1  0  0  0
 10 11  2  0  0  0
 10 14  1  0  0  0
 11 12  1  0  0  0
 11 65  1  0  0  0
 12 13  2  0  0  0
 14 15  2  0  0  0
 14 21  1  0  0  0
 15 16  1  0  0  0
 15 17  1  0  0  0
 17 18  2  0  0  0
 17 66  1  0  0  0
 18 19  1  0  0  0
 18 67  1  0  0  0
 19 20  1  0  0  0
 19 21  2  0  0  0
 21 22  1  0  0  0
 23 24  1  0  0  0
 23 28  2  0  0  0
 24 25  2  0  0  0
 24 68  1  0  0  0
 25 26  1  0  0  0
 25 29  1  0  0  0
 26 27  2  0  0  0
 26 69  1  0  0  0
 27 28  1  0  0  0
 27 70  1  0  0  0
 29 30  2  0  0  0
 29 46  1  0  0  0
 30 31  1  0  0  0
 30 71  1  0  0  0
 31 32  2  0  0  0
 31 72  1  0  0  0
 32 33  1  0  0  0
 32 45  1  0  0  0
 33 34  1  0  0  0
 33 73  1  0  0  0
 34 35  1  0  0  0
 34 43  1  0  0  0
 34 74  1  0  0  0
 35 36  1  0  0  0
 36 37  1  0  0  0
 36 39  1  0  0  0
 36 75  1  0  0  0
 37 38  1  0  0  0
 37 76  1  0  0  0
 37 77  1  0  0  0
 38 78  1  0  0  0
 39 40  1  0  0  0
 39 41  1  0  0  0
 39 79  1  0  0  0
 40 80  1  0  0  0
 41 42  1  0  0  0
 41 43  1  0  0  0
 41 81  1  0  0  0
 42 82  1  0  0  0
 43 44  1  0  0  0
 43 83  1  0  0  0
 44 84  1  0  0  0
 45 46  2  0  0  0
 45 85  1  0  0  0
 46 47  1  0  0  0
 47 48  1  0  0  0
 47 86  1  0  0  0
 48 49  2  0  0  0
M  END
> <chembl_id>
CHEMBL4114062

> <chembl_pref_name>
None

> <i_m_ct_stereo_status>
1

> <s_m_source_file>
sdf/actives_sanitized.sdf

> <i_m_source_file_index>
281

> <i_lp_mmshare_version>
49012

> <i_f3d_flags>
0

> <s_epik_input>
W09IXVtDQEhdMVtDQEBIXShbT0hdKVtDQEhdKFtPSF0pW0NAQEhdKFtDSDJdW09IXSlPW0NASF0xW05IXWMoW2NIXVtjSF0yKVtjSF1jKGMyYyhbY0hdYzM0KVtjSF1bY0hdbjQpW05IXUMoPU8pW0NASF0oW0NIM10pW0NIMl1bQ0gyXVtDSDJdW0NAQEhdM041W0NIMl1bQ0gyXUMoPVtDSF1DNT1PKWM2YyhGKVtjSF1bY0hdYyhDbCljNkY=

> <s_epik_cmdline>
J2VwaWtfcHl0aG9uJywgJy1waHQnLCAnMC41JywgJy1waCcsICc3LjUnLCAnLW50JywgJy1tYScsICcyMDAnLCAnLWltYWUnLCAnPGluZmlsZS5tYWU+JywgJy1vbWFlJywgJzxvdXRmaWxlLm1hZT4n

> <r_lp_tautomer_probability>
1

> <r_epik_Ionization_Penalty>
  0.0001

> <r_epik_Ionization_Penalty_Charging>
  0.0000

> <r_epik_Ionization_Penalty_Neutral>
  0.0001

> <r_epik_State_Penalty>
 -0.0000

> <r_epik_Charging_Adjusted_Penalty>
0

> <i_epik_Tot_Q>
0

> <i_epik_Tot_abs_Q>
0

> <s_epik_Chemistry_Notes>
This compound contains an acetal/aminal-like group ( X-CH(R)-Y where X, Y are N, S, or O) that may be acid/base labile, releasing an aldehyde.

> <s_lp_Force_Field>
OPLS3e

> <r_lp_Energy>
102.937453

> <b_lp_Chiralities_Consistent>
1

> <s_lp_Variant>
sdf/actives_sanitized.sdf:281-1

$$$$
sdf/actives_sanitized.sdf:282
                    3D
 Schrodinger Suite 2020-1.
 73 77  0  0  1  0            999 V2000
  -10.3285   -6.1012   -0.6205 C   0  0  0  0  0  0
   -9.5351   -5.0685   -1.1895 O   0  0  0  0  0  0
   -8.2025   -5.0299   -0.9873 C   0  0  0  0  0  0
   -7.5792   -5.8515   -0.3119 O   0  0  0  0  0  0
   -7.6891   -3.9282   -1.6652 N   0  0  0  0  0  0
   -6.3608   -3.4814   -1.7723 C   0  0  0  0  0  0
   -5.2588   -4.1096   -1.1746 C   0  0  0  0  0  0
   -3.9758   -3.5974   -1.3555 C   0  0  0  0  0  0
   -3.7548   -2.4552   -2.1323 C   0  0  0  0  0  0
   -4.8681   -1.8043   -2.7077 C   0  0  0  0  0  0
   -4.7599   -0.6600   -3.5147 N   0  0  0  0  0  0
   -4.4536    0.6028   -3.1383 C   0  0  0  0  0  0
   -4.4649    1.4979   -3.9826 O   0  0  0  0  0  0
   -4.0870    0.9698   -1.6752 C   0  0  2  0  0  0
   -5.1851    1.8445   -1.0359 C   0  0  0  0  0  0
   -2.6904    1.6569   -1.6121 C   0  0  0  0  0  0
   -2.0305    1.6825   -0.2072 C   0  0  0  0  0  0
   -0.4823    1.5507   -0.2128 C   0  0  0  0  0  0
    0.0755    0.0904   -0.2091 C   0  0  2  0  0  0
    1.5556    0.0212   -0.1105 N   0  0  0  0  0  0
    2.3903    0.9793   -0.8927 C   0  0  0  0  0  0
    3.8032    0.4296   -1.2299 C   0  0  0  0  0  0
    4.4057   -0.2253    0.0043 C   0  0  0  0  0  0
    3.5612   -0.8675    0.8394 C   0  0  0  0  0  0
    2.1249   -0.9475    0.6778 C   0  0  0  0  0  0
    1.4930   -1.8522    1.2266 O   0  0  0  0  0  0
    5.8827   -0.3250    0.1611 C   0  0  0  0  0  0
    6.4828   -0.4914    1.4232 C   0  0  0  0  0  0
    7.8705   -0.6060    1.5338 C   0  0  0  0  0  0
    8.6256   -0.5638    0.4203 N   0  3  0  0  0  0
    8.1097   -0.4171   -0.8138 C   0  0  0  0  0  0
    8.9738   -0.3903   -1.9255 N   0  0  0  0  0  0
    6.7254   -0.2985   -0.9648 C   0  0  0  0  0  0
   -0.4975   -0.7471   -1.3557 C   0  0  0  0  0  0
   -1.7070   -1.4196   -1.1719 C   0  0  0  0  0  0
   -2.3685   -1.9483   -2.2831 C   0  0  0  0  0  0
   -1.7278   -1.9039   -3.5275 C   0  0  0  0  0  0
   -0.4716   -1.3005   -3.6169 C   0  0  0  0  0  0
    0.1391   -0.7087   -2.5589 N   0  0  0  0  0  0
   -6.1520   -2.3315   -2.5372 C   0  0  0  0  0  0
  -11.3710   -5.9695   -0.9099 H   0  0  0  0  0  0
  -10.2732   -6.0818    0.4689 H   0  0  0  0  0  0
  -10.0018   -7.0829   -0.9667 H   0  0  0  0  0  0
   -8.3666   -3.3670   -2.1602 H   0  0  0  0  0  0
   -5.3614   -4.9960   -0.5701 H   0  0  0  0  0  0
   -3.1417   -4.1021   -0.8893 H   0  0  0  0  0  0
   -5.0541   -0.7830   -4.4725 H   0  0  0  0  0  0
   -4.0407    0.0572   -1.0852 H   0  0  0  0  0  0
   -6.1544    1.3440   -1.0553 H   0  0  0  0  0  0
   -5.2979    2.7978   -1.5550 H   0  0  0  0  0  0
   -4.9576    2.0629    0.0079 H   0  0  0  0  0  0
   -2.0176    1.1641   -2.3129 H   0  0  0  0  0  0
   -2.7594    2.6770   -1.9943 H   0  0  0  0  0  0
   -2.3056    2.6212    0.2759 H   0  0  0  0  0  0
   -2.4500    0.9071    0.4347 H   0  0  0  0  0  0
   -0.0820    2.1242   -1.0491 H   0  0  0  0  0  0
   -0.1068    2.0470    0.6833 H   0  0  0  0  0  0
   -0.3270   -0.3499    0.7057 H   0  0  0  0  0  0
    1.8598    1.3785   -1.7571 H   0  0  0  0  0  0
    2.5399    1.8350   -0.2328 H   0  0  0  0  0  0
    3.6958   -0.3228   -2.0128 H   0  0  0  0  0  0
    4.4347    1.2274   -1.6220 H   0  0  0  0  0  0
    3.9615   -1.4170    1.6791 H   0  0  0  0  0  0
    5.8859   -0.5188    2.3230 H   0  0  0  0  0  0
    8.4026   -0.7295    2.4661 H   0  0  0  0  0  0
    8.5962   -0.2838   -2.8564 H   0  0  0  0  0  0
    9.9716   -0.4794   -1.7977 H   0  0  0  0  0  0
    6.3118   -0.1944   -1.9575 H   0  0  0  0  0  0
   -2.1901   -1.4155   -0.2052 H   0  0  0  0  0  0
   -2.2021   -2.3092   -4.4094 H   0  0  0  0  0  0
    0.0468   -1.2476   -4.5628 H   0  0  0  0  0  0
   -6.9956   -1.8386   -3.0020 H   0  0  0  0  0  0
    9.6274   -0.6485    0.5145 H   0  0  0  0  0  0
  1  2  1  0  0  0
  1 41  1  0  0  0
  1 42  1  0  0  0
  1 43  1  0  0  0
  2  3  1  0  0  0
  3  4  2  0  0  0
  3  5  1  0  0  0
  5  6  1  0  0  0
  5 44  1  0  0  0
  6  7  2  0  0  0
  6 40  1  0  0  0
  7  8  1  0  0  0
  7 45  1  0  0  0
  8  9  2  0  0  0
  8 46  1  0  0  0
  9 10  1  0  0  0
  9 36  1  0  0  0
 10 11  1  0  0  0
 10 40  2  0  0  0
 11 12  1  0  0  0
 11 47  1  0  0  0
 12 13  2  0  0  0
 12 14  1  0  0  0
 14 15  1  0  0  0
 14 16  1  0  0  0
 14 48  1  0  0  0
 15 49  1  0  0  0
 15 50  1  0  0  0
 15 51  1  0  0  0
 16 17  1  0  0  0
 16 52  1  0  0  0
 16 53  1  0  0  0
 17 18  1  0  0  0
 17 54  1  0  0  0
 17 55  1  0  0  0
 18 19  1  0  0  0
 18 56  1  0  0  0
 18 57  1  0  0  0
 19 20  1  0  0  0
 19 34  1  0  0  0
 19 58  1  0  0  0
 20 21  1  0  0  0
 20 25  1  0  0  0
 21 22  1  0  0  0
 21 59  1  0  0  0
 21 60  1  0  0  0
 22 23  1  0  0  0
 22 61  1  0  0  0
 22 62  1  0  0  0
 23 24  2  0  0  0
 23 27  1  0  0  0
 24 25  1  0  0  0
 24 63  1  0  0  0
 25 26  2  0  0  0
 27 28  2  0  0  0
 27 33  1  0  0  0
 28 29  1  0  0  0
 28 64  1  0  0  0
 29 30  2  0  0  0
 29 65  1  0  0  0
 30 31  1  0  0  0
 30 73  1  0  0  0
 31 32  1  0  0  0
 31 33  2  0  0  0
 32 66  1  0  0  0
 32 67  1  0  0  0
 33 68  1  0  0  0
 34 35  1  0  0  0
 34 39  2  0  0  0
 35 36  2  0  0  0
 35 69  1  0  0  0
 36 37  1  0  0  0
 37 38  2  0  0  0
 37 70  1  0  0  0
 38 39  1  0  0  0
 38 71  1  0  0  0
 40 72  1  0  0  0
M  CHG  1  30   1
M  END
> <chembl_id>
CHEMBL4111600

> <chembl_pref_name>
None

> <i_m_ct_stereo_status>
1

> <s_m_source_file>
sdf/actives_sanitized.sdf

> <i_m_source_file_index>
282

> <i_lp_mmshare_version>
49012

> <i_f3d_flags>
0

> <s_epik_input>
W0NIM11PQyg9TylbTkhdYyhbY0hdW2NIXTEpW2NIXWMoYzEyKVtOSF1DKD1PKVtDQEhdKFtDSDNdKVtDSDJdW0NIMl1bQ0gyXVtDQEBIXShjM1tjSF1jMltjSF1bY0hdbjMpTjRbQ0gyXVtDSDJdQyg9W0NIXUM0PU8pYzVbY0hdW2NIXW5jKFtOSDJdKVtjSF01

> <s_epik_cmdline>
J2VwaWtfcHl0aG9uJywgJy1waHQnLCAnMC41JywgJy1waCcsICc3LjUnLCAnLW50JywgJy1tYScsICcyMDAnLCAnLWltYWUnLCAnPGluZmlsZS5tYWU+JywgJy1vbWFlJywgJzxvdXRmaWxlLm1hZT4n

> <r_lp_tautomer_probability>
1

> <r_epik_Ionization_Penalty>
  0.0082

> <r_epik_Ionization_Penalty_Charging>
  0.0082

> <r_epik_Ionization_Penalty_Neutral>
  0.0001

> <r_epik_State_Penalty>
 -0.0000

> <r_epik_Charging_Adjusted_Penalty>
0.00816397474406847

> <i_epik_Tot_Q>
1

> <i_epik_Tot_abs_Q>
1

> <s_epik_Chemistry_Notes>
This compound has an ester and may undergo hydrolysis at high or low pH.

> <s_lp_Force_Field>
OPLS3e

> <r_lp_Energy>
97.838471

> <b_lp_Chiralities_Consistent>
1

> <s_lp_Variant>
sdf/actives_sanitized.sdf:282-1

$$$$
sdf/actives_sanitized.sdf:283
                    3D
 Schrodinger Suite 2020-1.
 64 68  0  0  1  0            999 V2000
   -5.2375    1.8151   -0.9502 C   0  0  0  0  0  0
   -4.1289    0.9799   -1.6229 C   0  0  2  0  0  0
   -2.7352    1.6648   -1.5045 C   0  0  0  0  0  0
   -2.0916    1.6068   -0.0933 C   0  0  0  0  0  0
   -0.5422    1.4979   -0.0907 C   0  0  0  0  0  0
    0.0435    0.0511   -0.1853 C   0  0  2  0  0  0
    1.5250    0.0073   -0.0952 N   0  0  0  0  0  0
    2.3376    1.0397   -0.8062 C   0  0  0  0  0  0
    3.7629    0.5474   -1.1775 C   0  0  0  0  0  0
    4.3701   -0.1613    0.0202 C   0  0  0  0  0  0
    3.5496   -0.9062    0.7872 C   0  0  0  0  0  0
    2.1165   -1.0081    0.6159 C   0  0  0  0  0  0
    1.5055   -1.9673    1.0910 O   0  0  0  0  0  0
    5.8411   -0.2852    0.1702 C   0  0  0  0  0  0
    6.4506   -0.0250    1.4098 C   0  0  0  0  0  0
    5.7094    0.3534    2.4782 F   0  0  0  0  0  0
    7.8323   -0.1379    1.5603 C   0  0  0  0  0  0
    8.6261   -0.5100    0.4791 C   0  0  0  0  0  0
    8.0401   -0.7693   -0.7582 C   0  0  0  0  0  0
    9.0399   -1.2337   -2.0891 Cl  0  0  0  0  0  0
    6.6548   -0.6572   -0.9149 C   0  0  0  0  0  0
    6.1056   -0.9297   -2.1230 F   0  0  0  0  0  0
   -0.5190   -0.7260   -1.3795 C   0  0  0  0  0  0
   -1.7243   -1.4167   -1.2385 C   0  0  0  0  0  0
   -2.3757   -1.8912   -2.3796 C   0  0  0  0  0  0
   -1.7280   -1.7782   -3.6158 C   0  0  0  0  0  0
   -0.4756   -1.1624   -3.6661 C   0  0  0  0  0  0
    0.1242   -0.6209   -2.5752 N   0  0  0  0  0  0
   -3.7599   -2.4136   -2.2627 C   0  0  0  0  0  0
   -3.9778   -3.5956   -1.5433 C   0  0  0  0  0  0
   -5.2643   -4.1178   -1.3872 C   0  0  0  0  0  0
   -6.3534   -3.4544   -1.9536 C   0  0  0  0  0  0
   -6.1570   -2.2726   -2.6645 C   0  0  0  0  0  0
   -4.8739   -1.7370   -2.8090 C   0  0  0  0  0  0
   -4.7676   -0.5521   -3.5548 N   0  0  0  0  0  0
   -4.4763    0.6911   -3.1079 C   0  0  0  0  0  0
   -4.4871    1.6307   -3.9022 O   0  0  0  0  0  0
   -5.4674   -5.3493   -0.6388 C   0  0  0  0  0  0
   -5.6291   -6.3284   -0.0437 N   0  0  0  0  0  0
   -6.2059    1.3166   -1.0135 H   0  0  0  0  0  0
   -5.3431    2.7973   -1.4136 H   0  0  0  0  0  0
   -5.0259    1.9712    0.1080 H   0  0  0  0  0  0
   -4.0870    0.0367   -1.0827 H   0  0  0  0  0  0
   -2.0540    1.2143   -2.2252 H   0  0  0  0  0  0
   -2.8008    2.7053   -1.8277 H   0  0  0  0  0  0
   -2.3857    2.5073    0.4474 H   0  0  0  0  0  0
   -2.5052    0.7846    0.4915 H   0  0  0  0  0  0
   -0.1446    2.1379   -0.8783 H   0  0  0  0  0  0
   -0.1840    1.9334    0.8433 H   0  0  0  0  0  0
   -0.3440   -0.4546    0.7017 H   0  0  0  0  0  0
    1.7985    1.4852   -1.6420 H   0  0  0  0  0  0
    2.4662    1.8514   -0.0887 H   0  0  0  0  0  0
    3.6645   -0.1576   -2.0041 H   0  0  0  0  0  0
    4.3860    1.3752   -1.5173 H   0  0  0  0  0  0
    3.9778   -1.5086    1.5763 H   0  0  0  0  0  0
    8.2899    0.0661    2.5172 H   0  0  0  0  0  0
    9.6957   -0.5963    0.6035 H   0  0  0  0  0  0
   -2.2130   -1.4674   -0.2760 H   0  0  0  0  0  0
   -2.1941   -2.1409   -4.5204 H   0  0  0  0  0  0
    0.0487   -1.0584   -4.6045 H   0  0  0  0  0  0
   -3.1317   -4.1094   -1.1066 H   0  0  0  0  0  0
   -7.3562   -3.8451   -1.8487 H   0  0  0  0  0  0
   -7.0115   -1.7704   -3.0961 H   0  0  0  0  0  0
   -5.0550   -0.6260   -4.5198 H   0  0  0  0  0  0
  1  2  1  0  0  0
  1 40  1  0  0  0
  1 41  1  0  0  0
  1 42  1  0  0  0
  2  3  1  0  0  0
  2 36  1  0  0  0
  2 43  1  0  0  0
  3  4  1  0  0  0
  3 44  1  0  0  0
  3 45  1  0  0  0
  4  5  1  0  0  0
  4 46  1  0  0  0
  4 47  1  0  0  0
  5  6  1  0  0  0
  5 48  1  0  0  0
  5 49  1  0  0  0
  6  7  1  0  0  0
  6 23  1  0  0  0
  6 50  1  0  0  0
  7  8  1  0  0  0
  7 12  1  0  0  0
  8  9  1  0  0  0
  8 51  1  0  0  0
  8 52  1  0  0  0
  9 10  1  0  0  0
  9 53  1  0  0  0
  9 54  1  0  0  0
 10 11  2  0  0  0
 10 14  1  0  0  0
 11 12  1  0  0  0
 11 55  1  0  0  0
 12 13  2  0  0  0
 14 15  2  0  0  0
 14 21  1  0  0  0
 15 16  1  0  0  0
 15 17  1  0  0  0
 17 18  2  0  0  0
 17 56  1  0  0  0
 18 19  1  0  0  0
 18 57  1  0  0  0
 19 20  1  0  0  0
 19 21  2  0  0  0
 21 22  1  0  0  0
 23 24  1  0  0  0
 23 28  2  0  0  0
 24 25  2  0  0  0
 24 58  1  0  0  0
 25 26  1  0  0  0
 25 29  1  0  0  0
 26 27  2  0  0  0
 26 59  1  0  0  0
 27 28  1  0  0  0
 27 60  1  0  0  0
 29 30  2  0  0  0
 29 34  1  0  0  0
 30 31  1  0  0  0
 30 61  1  0  0  0
 31 32  2  0  0  0
 31 38  1  0  0  0
 32 33  1  0  0  0
 32 62  1  0  0  0
 33 34  2  0  0  0
 33 63  1  0  0  0
 34 35  1  0  0  0
 35 36  1  0  0  0
 35 64  1  0  0  0
 36 37  2  0  0  0
 38 39  3  0  0  0
M  END
> <chembl_id>
CHEMBL4114297

> <chembl_pref_name>
None

> <i_m_ct_stereo_status>
1

> <s_m_source_file>
sdf/actives_sanitized.sdf

> <i_m_source_file_index>
283

> <i_lp_mmshare_version>
49012

> <i_f3d_flags>
0

> <s_epik_input>
bjFbY0hdW2NIXWMoW2NIXWMxMiljM2MoW2NIXVtjSF1jKFtjSF0zKUMjTilbTkhdQyg9TylbQ0BIXShbQ0gzXSlbQ0gyXVtDSDJdW0NIMl1bQ0BASF0yTjRbQ0gyXVtDSDJdQyg9W0NIXUM0PU8pYzVjKEYpW2NIXVtjSF1jKENsKWM1Rg==

> <s_epik_cmdline>
J2VwaWtfcHl0aG9uJywgJy1waHQnLCAnMC41JywgJy1waCcsICc3LjUnLCAnLW50JywgJy1tYScsICcyMDAnLCAnLWltYWUnLCAnPGluZmlsZS5tYWU+JywgJy1vbWFlJywgJzxvdXRmaWxlLm1hZT4n

> <r_lp_tautomer_probability>
1

> <r_epik_Ionization_Penalty>
  0.0001

> <r_epik_Ionization_Penalty_Charging>
  0.0000

> <r_epik_Ionization_Penalty_Neutral>
  0.0001

> <r_epik_State_Penalty>
 -0.0000

> <r_epik_Charging_Adjusted_Penalty>
0

> <i_epik_Tot_Q>
0

> <i_epik_Tot_abs_Q>
0

> <s_lp_Force_Field>
OPLS3e

> <r_lp_Energy>
94.92611

> <b_lp_Chiralities_Consistent>
1

> <s_lp_Variant>
sdf/actives_sanitized.sdf:283-1

$$$$
sdf/actives_sanitized.sdf:284
                    3D
 Schrodinger Suite 2020-1.
 66 70  0  0  1  0            999 V2000
   -5.2382    1.8133   -0.9500 C   0  0  0  0  0  0
   -4.1287    0.9826   -1.6268 C   0  0  2  0  0  0
   -2.7358    1.6680   -1.5035 C   0  0  0  0  0  0
   -2.0934    1.6025   -0.0920 C   0  0  0  0  0  0
   -0.5439    1.4947   -0.0885 C   0  0  0  0  0  0
    0.0418    0.0484   -0.1898 C   0  0  2  0  0  0
    1.5230    0.0040   -0.0983 N   0  0  0  0  0  0
    2.3362    1.0387   -0.8054 C   0  0  0  0  0  0
    3.7622    0.5486   -1.1761 C   0  0  0  0  0  0
    4.3680   -0.1642    0.0198 C   0  0  0  0  0  0
    3.5467   -0.9120    0.7832 C   0  0  0  0  0  0
    2.1139   -1.0137    0.6099 C   0  0  0  0  0  0
    1.5025   -1.9744    1.0815 O   0  0  0  0  0  0
    5.8387   -0.2882    0.1714 C   0  0  0  0  0  0
    6.4461   -0.0329    1.4131 C   0  0  0  0  0  0
    5.7031    0.3415    2.4818 F   0  0  0  0  0  0
    7.8274   -0.1474    1.5654 C   0  0  0  0  0  0
    8.6228   -0.5157    0.4841 C   0  0  0  0  0  0
    8.0388   -0.7698   -0.7551 C   0  0  0  0  0  0
    9.0406   -1.2296   -2.0862 Cl  0  0  0  0  0  0
    6.6538   -0.6563   -0.9139 C   0  0  0  0  0  0
    6.1065   -0.9242   -2.1239 F   0  0  0  0  0  0
   -0.5197   -0.7231   -1.3883 C   0  0  0  0  0  0
   -1.7252   -1.4141   -1.2511 C   0  0  0  0  0  0
   -2.3765   -1.8835   -2.3945 C   0  0  0  0  0  0
   -1.7281   -1.7648   -3.6299 C   0  0  0  0  0  0
   -0.4753   -1.1493   -3.6767 C   0  0  0  0  0  0
    0.1245   -0.6136   -2.5830 N   0  0  0  0  0  0
   -3.7608   -2.4060   -2.2801 C   0  0  0  0  0  0
   -3.9798   -3.5897   -1.5646 C   0  0  0  0  0  0
   -5.2645   -4.1141   -1.4092 C   0  0  0  0  0  0
   -5.4662   -5.4020   -0.6320 C   0  0  0  0  0  0
   -6.3529   -3.4497   -1.9757 C   0  0  0  0  0  0
   -6.1579   -2.2655   -2.6827 C   0  0  0  0  0  0
   -4.8751   -1.7281   -2.8246 C   0  0  0  0  0  0
   -4.7691   -0.5401   -3.5657 N   0  0  0  0  0  0
   -4.4756    0.7007   -3.1134 C   0  0  0  0  0  0
   -4.4837    1.6438   -3.9039 O   0  0  0  0  0  0
   -6.2064    1.3146   -1.0169 H   0  0  0  0  0  0
   -5.3441    2.7978   -1.4083 H   0  0  0  0  0  0
   -5.0269    1.9642    0.1090 H   0  0  0  0  0  0
   -4.0861    0.0366   -1.0916 H   0  0  0  0  0  0
   -2.0534    1.2221   -2.2263 H   0  0  0  0  0  0
   -2.8021    2.7104   -1.8208 H   0  0  0  0  0  0
   -2.3890    2.4997    0.4538 H   0  0  0  0  0  0
   -2.5068    0.7762    0.4873 H   0  0  0  0  0  0
   -0.1449    2.1392   -0.8721 H   0  0  0  0  0  0
   -0.1867    1.9248    0.8485 H   0  0  0  0  0  0
   -0.3469   -0.4615    0.6943 H   0  0  0  0  0  0
    1.7982    1.4862   -1.6411 H   0  0  0  0  0  0
    2.4635    1.8484   -0.0854 H   0  0  0  0  0  0
    3.6652   -0.1538   -2.0052 H   0  0  0  0  0  0
    4.3855    1.3777   -1.5127 H   0  0  0  0  0  0
    3.9748   -1.5167    1.5706 H   0  0  0  0  0  0
    8.2834    0.0523    2.5241 H   0  0  0  0  0  0
    9.6922   -0.6031    0.6101 H   0  0  0  0  0  0
   -2.2142   -1.4694   -0.2890 H   0  0  0  0  0  0
   -2.1939   -2.1236   -4.5361 H   0  0  0  0  0  0
    0.0497   -1.0413   -4.6143 H   0  0  0  0  0  0
   -3.1398   -4.1107   -1.1268 H   0  0  0  0  0  0
   -6.5067   -5.7291   -0.6372 H   0  0  0  0  0  0
   -5.1475   -5.2708    0.4027 H   0  0  0  0  0  0
   -4.8578   -6.1982   -1.0623 H   0  0  0  0  0  0
   -7.3524   -3.8457   -1.8683 H   0  0  0  0  0  0
   -7.0128   -1.7630   -3.1130 H   0  0  0  0  0  0
   -5.0597   -0.6097   -4.5301 H   0  0  0  0  0  0
  1  2  1  0  0  0
  1 39  1  0  0  0
  1 40  1  0  0  0
  1 41  1  0  0  0
  2  3  1  0  0  0
  2 37  1  0  0  0
  2 42  1  0  0  0
  3  4  1  0  0  0
  3 43  1  0  0  0
  3 44  1  0  0  0
  4  5  1  0  0  0
  4 45  1  0  0  0
  4 46  1  0  0  0
  5  6  1  0  0  0
  5 47  1  0  0  0
  5 48  1  0  0  0
  6  7  1  0  0  0
  6 23  1  0  0  0
  6 49  1  0  0  0
  7  8  1  0  0  0
  7 12  1  0  0  0
  8  9  1  0  0  0
  8 50  1  0  0  0
  8 51  1  0  0  0
  9 10  1  0  0  0
  9 52  1  0  0  0
  9 53  1  0  0  0
 10 11  2  0  0  0
 10 14  1  0  0  0
 11 12  1  0  0  0
 11 54  1  0  0  0
 12 13  2  0  0  0
 14 15  2  0  0  0
 14 21  1  0  0  0
 15 16  1  0  0  0
 15 17  1  0  0  0
 17 18  2  0  0  0
 17 55  1  0  0  0
 18 19  1  0  0  0
 18 56  1  0  0  0
 19 20  1  0  0  0
 19 21  2  0  0  0
 21 22  1  0  0  0
 23 24  1  0  0  0
 23 28  2  0  0  0
 24 25  2  0  0  0
 24 57  1  0  0  0
 25 26  1  0  0  0
 25 29  1  0  0  0
 26 27  2  0  0  0
 26 58  1  0  0  0
 27 28  1  0  0  0
 27 59  1  0  0  0
 29 30  2  0  0  0
 29 35  1  0  0  0
 30 31  1  0  0  0
 30 60  1  0  0  0
 31 32  1  0  0  0
 31 33  2  0  0  0
 32 61  1  0  0  0
 32 62  1  0  0  0
 32 63  1  0  0  0
 33 34  1  0  0  0
 33 64  1  0  0  0
 34 35  2  0  0  0
 34 65  1  0  0  0
 35 36  1  0  0  0
 36 37  1  0  0  0
 36 66  1  0  0  0
 37 38  2  0  0  0
M  END
> <chembl_id>
CHEMBL4113165

> <chembl_pref_name>
None

> <i_m_ct_stereo_status>
1

> <s_m_source_file>
sdf/actives_sanitized.sdf

> <i_m_source_file_index>
284

> <i_lp_mmshare_version>
49012

> <i_f3d_flags>
0

> <s_epik_input>
bjFbY0hdW2NIXWMoW2NIXWMxMiljM2MoW2NIXVtjSF1jKFtjSF0zKVtDSDNdKVtOSF1DKD1PKVtDQEhdKFtDSDNdKVtDSDJdW0NIMl1bQ0gyXVtDQEBIXTJONFtDSDJdW0NIMl1DKD1bQ0hdQzQ9TyljNWMoRilbY0hdW2NIXWMoQ2wpYzVG

> <s_epik_cmdline>
J2VwaWtfcHl0aG9uJywgJy1waHQnLCAnMC41JywgJy1waCcsICc3LjUnLCAnLW50JywgJy1tYScsICcyMDAnLCAnLWltYWUnLCAnPGluZmlsZS5tYWU+JywgJy1vbWFlJywgJzxvdXRmaWxlLm1hZT4n

> <r_lp_tautomer_probability>
1

> <r_epik_Ionization_Penalty>
  0.0002

> <r_epik_Ionization_Penalty_Charging>
  0.0000

> <r_epik_Ionization_Penalty_Neutral>
  0.0002

> <r_epik_State_Penalty>
 -0.0000

> <r_epik_Charging_Adjusted_Penalty>
0

> <i_epik_Tot_Q>
0

> <i_epik_Tot_abs_Q>
0

> <s_lp_Force_Field>
OPLS3e

> <r_lp_Energy>
92.031219

> <b_lp_Chiralities_Consistent>
1

> <s_lp_Variant>
sdf/actives_sanitized.sdf:284-1

$$$$
sdf/actives_sanitized.sdf:285
                    3D
 Schrodinger Suite 2020-1.
 75 79  0  0  1  0            999 V2000
  -10.2140   -6.1345   -0.6446 C   0  0  0  0  0  0
   -9.4447   -5.1050   -1.2514 O   0  0  0  0  0  0
   -8.1049   -5.0652   -1.1046 C   0  0  0  0  0  0
   -7.4521   -5.8913   -0.4633 O   0  0  0  0  0  0
   -7.6240   -3.9501   -1.7846 N   0  0  0  0  0  0
   -6.3047   -3.4859   -1.9232 C   0  0  0  0  0  0
   -5.1721   -4.1486   -1.4287 C   0  0  0  0  0  0
   -3.9037   -3.6036   -1.6155 C   0  0  0  0  0  0
   -3.7273   -2.3946   -2.2967 C   0  0  0  0  0  0
   -4.8696   -1.7192   -2.7794 C   0  0  0  0  0  0
   -4.8051   -0.5076   -3.4862 N   0  0  0  0  0  0
   -4.5269    0.7246   -3.0018 C   0  0  0  0  0  0
   -4.5766    1.6921   -3.7603 O   0  0  0  0  0  0
   -4.1456    0.9659   -1.5164 C   0  0  2  0  0  0
   -5.2537    1.7496   -0.7837 C   0  0  0  0  0  0
   -2.7642    1.6768   -1.4076 C   0  0  0  0  0  0
   -2.0813    1.5777   -0.0173 C   0  0  0  0  0  0
   -0.5305    1.4959   -0.0594 C   0  0  0  0  0  0
    0.0725    0.0616   -0.2154 C   0  0  2  0  0  0
    1.5554    0.0279   -0.1452 N   0  0  0  0  0  0
    2.3494    1.1141   -0.7952 C   0  0  0  0  0  0
    3.7862    0.6790   -1.1938 C   0  0  0  0  0  0
    4.3979   -0.1151   -0.0563 C   0  0  0  0  0  0
    3.5952   -0.9158    0.6687 C   0  0  0  0  0  0
    2.1633   -1.0251    0.4948 C   0  0  0  0  0  0
    1.5662   -2.0203    0.9093 O   0  0  0  0  0  0
    5.8664   -0.1991    0.0960 C   0  0  0  0  0  0
    6.4695    0.3377    1.2441 C   0  0  0  0  0  0
    5.7073    0.9061    2.2103 F   0  0  0  0  0  0
    7.8561    0.2949    1.4014 C   0  0  0  0  0  0
    8.6019    0.9522    2.8148 Cl  0  0  0  0  0  0
    8.6489   -0.2788    0.4120 C   0  0  0  0  0  0
    8.0613   -0.8076   -0.7340 C   0  0  0  0  0  0
    6.6667   -0.7740   -0.9094 C   0  0  0  0  0  0
    6.0294   -1.2898   -2.0253 O   0  0  0  0  0  0
    6.7995   -1.8782   -3.0677 C   0  0  0  0  0  0
   -0.5004   -0.6774   -1.4282 C   0  0  0  0  0  0
   -1.6861   -1.4003   -1.2872 C   0  0  0  0  0  0
   -2.3572   -1.8403   -2.4306 C   0  0  0  0  0  0
   -1.7452   -1.6584   -3.6770 C   0  0  0  0  0  0
   -0.5076   -1.0128   -3.7315 C   0  0  0  0  0  0
    0.1096   -0.5058   -2.6333 N   0  0  0  0  0  0
   -6.1395   -2.2781   -2.6050 C   0  0  0  0  0  0
  -11.2702   -5.9890   -0.8710 H   0  0  0  0  0  0
  -10.0950   -6.1249    0.4398 H   0  0  0  0  0  0
   -9.9184   -7.1165   -1.0166 H   0  0  0  0  0  0
   -8.3234   -3.3834   -2.2416 H   0  0  0  0  0  0
   -5.2401   -5.0848   -0.8990 H   0  0  0  0  0  0
   -3.0460   -4.1310   -1.2230 H   0  0  0  0  0  0
   -5.1104   -0.5550   -4.4473 H   0  0  0  0  0  0
   -4.0683    0.0043   -1.0139 H   0  0  0  0  0  0
   -6.2109    1.2284   -0.8352 H   0  0  0  0  0  0
   -5.3982    2.7434   -1.2105 H   0  0  0  0  0  0
   -5.0140    1.8760    0.2725 H   0  0  0  0  0  0
   -2.0928    1.2712   -2.1636 H   0  0  0  0  0  0
   -2.8613    2.7277   -1.6860 H   0  0  0  0  0  0
   -2.3757    2.4518    0.5652 H   0  0  0  0  0  0
   -2.4653    0.7264    0.5459 H   0  0  0  0  0  0
   -0.1635    2.1664   -0.8368 H   0  0  0  0  0  0
   -0.1542    1.9075    0.8784 H   0  0  0  0  0  0
   -0.2954   -0.4797    0.6591 H   0  0  0  0  0  0
    1.8012    1.5997   -1.6024 H   0  0  0  0  0  0
    2.4613    1.8828   -0.0293 H   0  0  0  0  0  0
    3.7097    0.0401   -2.0746 H   0  0  0  0  0  0
    4.3983    1.5409   -1.4620 H   0  0  0  0  0  0
    4.0391   -1.5516    1.4222 H   0  0  0  0  0  0
    9.7222   -0.3141    0.5291 H   0  0  0  0  0  0
    8.7106   -1.2421   -1.4786 H   0  0  0  0  0  0
    6.1319   -2.2210   -3.8580 H   0  0  0  0  0  0
    7.3601   -2.7434   -2.7110 H   0  0  0  0  0  0
    7.4905   -1.1585   -3.5089 H   0  0  0  0  0  0
   -2.1482   -1.5032   -0.3158 H   0  0  0  0  0  0
   -2.2277   -1.9910   -4.5847 H   0  0  0  0  0  0
   -0.0106   -0.8564   -4.6773 H   0  0  0  0  0  0
   -7.0064   -1.7600   -2.9929 H   0  0  0  0  0  0
  1  2  1  0  0  0
  1 44  1  0  0  0
  1 45  1  0  0  0
  1 46  1  0  0  0
  2  3  1  0  0  0
  3  4  2  0  0  0
  3  5  1  0  0  0
  5  6  1  0  0  0
  5 47  1  0  0  0
  6  7  2  0  0  0
  6 43  1  0  0  0
  7  8  1  0  0  0
  7 48  1  0  0  0
  8  9  2  0  0  0
  8 49  1  0  0  0
  9 10  1  0  0  0
  9 39  1  0  0  0
 10 11  1  0  0  0
 10 43  2  0  0  0
 11 12  1  0  0  0
 11 50  1  0  0  0
 12 13  2  0  0  0
 12 14  1  0  0  0
 14 15  1  0  0  0
 14 16  1  0  0  0
 14 51  1  0  0  0
 15 52  1  0  0  0
 15 53  1  0  0  0
 15 54  1  0  0  0
 16 17  1  0  0  0
 16 55  1  0  0  0
 16 56  1  0  0  0
 17 18  1  0  0  0
 17 57  1  0  0  0
 17 58  1  0  0  0
 18 19  1  0  0  0
 18 59  1  0  0  0
 18 60  1  0  0  0
 19 20  1  0  0  0
 19 37  1  0  0  0
 19 61  1  0  0  0
 20 21  1  0  0  0
 20 25  1  0  0  0
 21 22  1  0  0  0
 21 62  1  0  0  0
 21 63  1  0  0  0
 22 23  1  0  0  0
 22 64  1  0  0  0
 22 65  1  0  0  0
 23 24  2  0  0  0
 23 27  1  0  0  0
 24 25  1  0  0  0
 24 66  1  0  0  0
 25 26  2  0  0  0
 27 28  2  0  0  0
 27 34  1  0  0  0
 28 29  1  0  0  0
 28 30  1  0  0  0
 30 31  1  0  0  0
 30 32  2  0  0  0
 32 33  1  0  0  0
 32 67  1  0  0  0
 33 34  2  0  0  0
 33 68  1  0  0  0
 34 35  1  0  0  0
 35 36  1  0  0  0
 36 69  1  0  0  0
 36 70  1  0  0  0
 36 71  1  0  0  0
 37 38  1  0  0  0
 37 42  2  0  0  0
 38 39  2  0  0  0
 38 72  1  0  0  0
 39 40  1  0  0  0
 40 41  2  0  0  0
 40 73  1  0  0  0
 41 42  1  0  0  0
 41 74  1  0  0  0
 43 75  1  0  0  0
M  END
> <chembl_id>
CHEMBL4112474

> <chembl_pref_name>
None

> <i_m_ct_stereo_status>
1

> <s_m_source_file>
sdf/actives_sanitized.sdf

> <i_m_source_file_index>
285

> <i_lp_mmshare_version>
49012

> <i_f3d_flags>
0

> <s_epik_input>
W0NIM11PQyg9TylbTkhdYyhbY0hdW2NIXTEpW2NIXWMoYzEyKVtOSF1DKD1PKVtDQEhdKFtDSDNdKVtDSDJdW0NIMl1bQ0gyXVtDQEBIXShjM1tjSF1jMltjSF1bY0hdbjMpTjRbQ0gyXVtDSDJdQyg9W0NIXUM0PU8pYzVjKEYpYyhDbClbY0hdW2NIXWM1T1tDSDNd

> <s_epik_cmdline>
J2VwaWtfcHl0aG9uJywgJy1waHQnLCAnMC41JywgJy1waCcsICc3LjUnLCAnLW50JywgJy1tYScsICcyMDAnLCAnLWltYWUnLCAnPGluZmlsZS5tYWU+JywgJy1vbWFlJywgJzxvdXRmaWxlLm1hZT4n

> <r_lp_tautomer_probability>
1

> <r_epik_Ionization_Penalty>
  0.0001

> <r_epik_Ionization_Penalty_Charging>
  0.0000

> <r_epik_Ionization_Penalty_Neutral>
  0.0001

> <r_epik_State_Penalty>
 -0.0000

> <r_epik_Charging_Adjusted_Penalty>
0

> <i_epik_Tot_Q>
0

> <i_epik_Tot_abs_Q>
0

> <s_epik_Chemistry_Notes>
This compound has an ester and may undergo hydrolysis at high or low pH.

> <s_lp_Force_Field>
OPLS3e

> <r_lp_Energy>
96.274756

> <b_lp_Chiralities_Consistent>
1

> <s_lp_Variant>
sdf/actives_sanitized.sdf:285-1

$$$$
sdf/actives_sanitized.sdf:286
                    3D
 Schrodinger Suite 2020-1.
 74 79  0  0  1  0            999 V2000
   -0.5476   -0.3898    1.6787 C   0  0  0  0  0  0
   -0.1477    0.1059    0.2723 C   0  0  0  0  0  0
   -1.0942   -0.4842   -0.7967 C   0  0  0  0  0  0
    1.3786   -0.0787   -0.0157 C   0  0  2  0  0  0
    1.8664    0.6490   -1.3081 C   0  0  0  0  0  0
    1.8530    2.1996   -1.2399 C   0  0  0  0  0  0
    3.0110    2.8944   -2.0079 C   0  0  0  0  0  0
    4.3396    3.0875   -1.2067 C   0  0  2  0  0  0
    5.3747    3.8542   -1.9449 N   0  0  0  0  0  0
    5.5629    3.6183   -3.4082 C   0  0  0  0  0  0
    7.0009    3.9298   -3.9037 C   0  0  0  0  0  0
    7.4673    5.2365   -3.2922 C   0  0  0  0  0  0
    7.0649    5.5422   -2.0452 C   0  0  0  0  0  0
    6.1634    4.7388   -1.2497 C   0  0  0  0  0  0
    6.1462    4.8654   -0.0239 O   0  0  0  0  0  0
    8.5445    6.0216   -3.9350 C   0  0  0  0  0  0
    8.2261    7.2744   -4.4844 C   0  0  0  0  0  0
    6.9649    7.7609   -4.3793 F   0  0  0  0  0  0
    9.1966    8.0277   -5.1501 C   0  0  0  0  0  0
    8.8024    9.5702   -5.8218 Cl  0  0  0  0  0  0
   10.4921    7.5344   -5.2829 C   0  0  0  0  0  0
   10.8237    6.2921   -4.7497 C   0  0  0  0  0  0
    9.8640    5.5327   -4.0703 C   0  0  0  0  0  0
   10.2711    4.2899   -3.5373 N   0  0  0  0  0  0
   10.9646    3.2738   -4.1525 C   0  0  0  0  0  0
   11.1831    2.2866   -3.3217 N   0  0  0  0  0  0
   10.6201    2.6966   -2.1172 N   0  0  0  0  0  0
   10.0642    3.9546   -2.2549 N   0  0  0  0  0  0
    4.8615    1.7707   -0.6238 C   0  0  0  0  0  0
    4.4077    1.3505    0.6277 C   0  0  0  0  0  0
    4.6626    0.0404    1.0411 C   0  0  0  0  0  0
    5.4867   -0.7641    0.2445 C   0  0  0  0  0  0
    5.9879   -0.2406   -0.9495 C   0  0  0  0  0  0
    5.6716    1.0001   -1.4012 N   0  0  0  0  0  0
    3.9825   -0.4859    2.2511 C   0  0  0  0  0  0
    4.3083    0.0556    3.5010 C   0  0  0  0  0  0
    3.6801   -0.3906    4.6626 C   0  0  0  0  0  0
    2.7107   -1.3874    4.5909 C   0  0  0  0  0  0
    2.3652   -1.9339    3.3571 C   0  0  0  0  0  0
    2.9782   -1.4796    2.1850 C   0  0  0  0  0  0
    2.5796   -2.0944    0.9871 N   0  0  0  0  0  0
    1.8505   -1.5630   -0.0215 C   0  0  0  0  0  0
    1.5550   -2.2728   -0.9818 O   0  0  0  0  0  0
   -0.4497   -1.4722    1.7700 H   0  0  0  0  0  0
   -1.5828   -0.1349    1.9079 H   0  0  0  0  0  0
    0.0748    0.0653    2.4504 H   0  0  0  0  0  0
   -0.3325    1.1813    0.2814 H   0  0  0  0  0  0
   -1.0122   -1.5692   -0.8605 H   0  0  0  0  0  0
   -0.8961   -0.0750   -1.7866 H   0  0  0  0  0  0
   -2.1346   -0.2540   -0.5647 H   0  0  0  0  0  0
    1.8789    0.4226    0.8083 H   0  0  0  0  0  0
    2.8787    0.3175   -1.5371 H   0  0  0  0  0  0
    1.2942    0.3207   -2.1761 H   0  0  0  0  0  0
    0.8999    2.5449   -1.6435 H   0  0  0  0  0  0
    1.8588    2.5441   -0.2054 H   0  0  0  0  0  0
    3.1865    2.3578   -2.9405 H   0  0  0  0  0  0
    2.6616    3.8845   -2.3045 H   0  0  0  0  0  0
    4.0486    3.6955   -0.3474 H   0  0  0  0  0  0
    5.2002    2.6388   -3.7189 H   0  0  0  0  0  0
    4.9034    4.3336   -3.9016 H   0  0  0  0  0  0
    7.6512    3.1220   -3.5660 H   0  0  0  0  0  0
    7.0478    3.9535   -4.9929 H   0  0  0  0  0  0
    7.4719    6.4241   -1.5702 H   0  0  0  0  0  0
   11.2439    8.1141   -5.7984 H   0  0  0  0  0  0
   11.8364    5.9296   -4.8567 H   0  0  0  0  0  0
   11.2522    3.3418   -5.1915 H   0  0  0  0  0  0
    3.7550    1.9850    1.2103 H   0  0  0  0  0  0
    5.7164   -1.7791    0.5343 H   0  0  0  0  0  0
    6.6256   -0.8359   -1.5863 H   0  0  0  0  0  0
    5.0593    0.8291    3.5751 H   0  0  0  0  0  0
    3.9465    0.0362    5.6184 H   0  0  0  0  0  0
    2.2264   -1.7359    5.4913 H   0  0  0  0  0  0
    1.6098   -2.7061    3.3164 H   0  0  0  0  0  0
    2.7746   -3.0831    0.9283 H   0  0  0  0  0  0
  1  2  1  0  0  0
  1 44  1  0  0  0
  1 45  1  0  0  0
  1 46  1  0  0  0
  2  3  1  0  0  0
  2  4  1  0  0  0
  2 47  1  0  0  0
  3 48  1  0  0  0
  3 49  1  0  0  0
  3 50  1  0  0  0
  4  5  1  0  0  0
  4 42  1  0  0  0
  4 51  1  0  0  0
  5  6  1  0  0  0
  5 52  1  0  0  0
  5 53  1  0  0  0
  6  7  1  0  0  0
  6 54  1  0  0  0
  6 55  1  0  0  0
  7  8  1  0  0  0
  7 56  1  0  0  0
  7 57  1  0  0  0
  8  9  1  0  0  0
  8 29  1  0  0  0
  8 58  1  0  0  0
  9 10  1  0  0  0
  9 14  1  0  0  0
 10 11  1  0  0  0
 10 59  1  0  0  0
 10 60  1  0  0  0
 11 12  1  0  0  0
 11 61  1  0  0  0
 11 62  1  0  0  0
 12 13  2  0  0  0
 12 16  1  0  0  0
 13 14  1  0  0  0
 13 63  1  0  0  0
 14 15  2  0  0  0
 16 17  2  0  0  0
 16 23  1  0  0  0
 17 18  1  0  0  0
 17 19  1  0  0  0
 19 20  1  0  0  0
 19 21  2  0  0  0
 21 22  1  0  0  0
 21 64  1  0  0  0
 22 23  2  0  0  0
 22 65  1  0  0  0
 23 24  1  0  0  0
 24 25  1  0  0  0
 24 28  1  0  0  0
 25 26  2  0  0  0
 25 66  1  0  0  0
 26 27  1  0  0  0
 27 28  2  0  0  0
 29 30  1  0  0  0
 29 34  2  0  0  0
 30 31  2  0  0  0
 30 67  1  0  0  0
 31 32  1  0  0  0
 31 35  1  0  0  0
 32 33  2  0  0  0
 32 68  1  0  0  0
 33 34  1  0  0  0
 33 69  1  0  0  0
 35 36  2  0  0  0
 35 40  1  0  0  0
 36 37  1  0  0  0
 36 70  1  0  0  0
 37 38  2  0  0  0
 37 71  1  0  0  0
 38 39  1  0  0  0
 38 72  1  0  0  0
 39 40  2  0  0  0
 39 73  1  0  0  0
 40 41  1  0  0  0
 41 42  1  0  0  0
 41 74  1  0  0  0
 42 43  2  0  0  0
M  END
> <chembl_id>
CHEMBL3948120

> <chembl_pref_name>
None

> <i_m_ct_stereo_status>
1

> <s_m_source_file>
sdf/actives_sanitized.sdf

> <i_m_source_file_index>
286

> <i_lp_mmshare_version>
49012

> <i_f3d_flags>
0

> <s_epik_input>
bjFbY0hdW2NIXWMoW2NIXWMxMiljM2MoW2NIXVtjSF1bY0hdW2NIXTMpW05IXUMoPU8pW0NASF0oW0NIXShbQ0gzXSlbQ0gzXSlbQ0gyXVtDSDJdW0NIMl1bQ0BASF0yTjRbQ0gyXVtDSDJdQyg9W0NIXUM0PU8pYzVjKEYpYyhDbClbY0hdW2NIXWM1LW42W2NIXW5ubjY=

> <s_epik_cmdline>
J2VwaWtfcHl0aG9uJywgJy1waHQnLCAnMC41JywgJy1waCcsICc3LjUnLCAnLW50JywgJy1tYScsICcyMDAnLCAnLWltYWUnLCAnPGluZmlsZS5tYWU+JywgJy1vbWFlJywgJzxvdXRmaWxlLm1hZT4n

> <r_lp_tautomer_probability>
1

> <r_epik_Ionization_Penalty>
  0.0001

> <r_epik_Ionization_Penalty_Charging>
  0.0000

> <r_epik_Ionization_Penalty_Neutral>
  0.0001

> <r_epik_State_Penalty>
 -0.0000

> <r_epik_Charging_Adjusted_Penalty>
0

> <i_epik_Tot_Q>
0

> <i_epik_Tot_abs_Q>
0

> <s_lp_Force_Field>
OPLS3e

> <r_lp_Energy>
97.550264

> <b_lp_Chiralities_Consistent>
1

> <s_lp_Variant>
sdf/actives_sanitized.sdf:286-1

$$$$
sdf/actives_sanitized.sdf:287
                    3D
 Schrodinger Suite 2020-1.
 77 83  0  0  1  0            999 V2000
   -1.6596    3.8710   -3.1426 C   0  0  0  0  0  0
   -2.9352    3.0904   -2.7537 C   0  0  2  0  0  0
   -4.0490    3.3049   -3.8380 C   0  0  0  0  0  0
   -5.2124    2.2768   -3.9214 C   0  0  0  0  0  0
   -6.3553    2.4317   -2.8804 C   0  0  0  0  0  0
   -7.0380    1.0972   -2.4213 C   0  0  2  0  0  0
   -8.4931    1.2861   -2.2025 N   0  0  0  0  0  0
   -8.9304    2.3667   -1.2712 C   0  0  0  0  0  0
  -10.3242    2.0903   -0.6475 C   0  0  0  0  0  0
  -11.2764    1.6556   -1.7470 C   0  0  0  0  0  0
  -10.7867    0.8972   -2.7481 C   0  0  0  0  0  0
   -9.3953    0.5312   -2.9098 C   0  0  0  0  0  0
   -9.0878   -0.4213   -3.6284 O   0  0  0  0  0  0
  -12.7357    1.8150   -1.5585 C   0  0  0  0  0  0
  -13.2910    3.1012   -1.4768 C   0  0  0  0  0  0
  -12.5061    4.1995   -1.5864 F   0  0  0  0  0  0
  -14.6631    3.2704   -1.2926 C   0  0  0  0  0  0
  -15.4976    2.1605   -1.1873 C   0  0  0  0  0  0
  -14.9618    0.8761   -1.2639 C   0  0  0  0  0  0
  -16.0102   -0.4905   -1.1244 Cl  0  0  0  0  0  0
  -13.5863    0.7013   -1.4475 C   0  0  0  0  0  0
  -13.0785   -0.5539   -1.5044 F   0  0  0  0  0  0
   -6.3106    0.4461   -1.2211 C   0  0  0  0  0  0
   -4.9205    0.4865   -1.1561 C   0  0  0  0  0  0
   -4.2443    0.0955   -0.0058 C   0  0  0  0  0  0
   -4.9895   -0.4676    1.0360 C   0  0  0  0  0  0
   -6.3787   -0.5545    0.8918 C   0  0  0  0  0  0
   -7.0422   -0.0922   -0.2028 N   0  0  0  0  0  0
   -2.7782    0.3366    0.0562 C   0  0  0  0  0  0
   -1.9062   -0.7345    0.2712 C   0  0  0  0  0  0
   -0.5248   -0.5492    0.2331 C   0  0  0  0  0  0
    0.0219    0.7112   -0.0191 C   0  0  0  0  0  0
    1.4242    0.8156   -0.0560 N   0  0  0  0  0  0
    2.2130    1.8615   -0.4772 C   0  0  0  0  0  0
    3.5520    1.6983   -0.3370 O   0  0  0  0  0  0
    4.0472    2.8566   -0.8436 C   0  0  0  0  0  0
    3.1080    3.6670   -1.2654 N   0  0  0  0  0  0
    1.9035    3.0103   -1.0305 N   0  0  0  0  0  0
    5.4777    3.0733   -0.8666 C   0  0  0  0  0  0
    6.2687    2.0664   -0.4063 O   0  0  0  0  0  0
    7.5570    2.4792   -0.5213 C   0  0  0  0  0  0
    7.6025    3.7548   -1.0560 C   0  0  0  0  0  0
    6.2773    4.1329   -1.2760 C   0  0  0  0  0  0
   -0.8441    1.7981   -0.1963 C   0  0  0  0  0  0
   -2.2305    1.6196   -0.1673 C   0  0  0  0  0  0
   -3.0511    2.7597   -0.2337 N   0  0  0  0  0  0
   -3.3681    3.5005   -1.3203 C   0  0  0  0  0  0
   -4.0201    4.5330   -1.1698 O   0  0  0  0  0  0
   -0.8467    3.7071   -2.4347 H   0  0  0  0  0  0
   -1.8402    4.9463   -3.1862 H   0  0  0  0  0  0
   -1.2897    3.5607   -4.1203 H   0  0  0  0  0  0
   -2.6595    2.0360   -2.7654 H   0  0  0  0  0  0
   -4.4559    4.3160   -3.7796 H   0  0  0  0  0  0
   -3.5604    3.2683   -4.8131 H   0  0  0  0  0  0
   -5.6697    2.3716   -4.9077 H   0  0  0  0  0  0
   -4.8042    1.2674   -3.9367 H   0  0  0  0  0  0
   -6.0107    2.9706   -1.9997 H   0  0  0  0  0  0
   -7.0969    3.0988   -3.3236 H   0  0  0  0  0  0
   -6.8857    0.3868   -3.2353 H   0  0  0  0  0  0
   -8.1539    2.6347   -0.5538 H   0  0  0  0  0  0
   -9.0616    3.2517   -1.8957 H   0  0  0  0  0  0
  -10.2213    1.2794    0.0752 H   0  0  0  0  0  0
  -10.6891    2.9636   -0.1065 H   0  0  0  0  0  0
  -11.4746    0.4983   -3.4807 H   0  0  0  0  0  0
  -15.0815    4.2645   -1.2328 H   0  0  0  0  0  0
  -16.5596    2.2994   -1.0454 H   0  0  0  0  0  0
   -4.3406    0.8813   -1.9640 H   0  0  0  0  0  0
   -4.5101   -0.8052    1.9432 H   0  0  0  0  0  0
   -6.9870   -0.9742    1.6792 H   0  0  0  0  0  0
   -2.2994   -1.7265    0.4414 H   0  0  0  0  0  0
    0.1203   -1.4025    0.3873 H   0  0  0  0  0  0
    1.8783   -0.0411    0.2248 H   0  0  0  0  0  0
    8.3143    1.7827   -0.1926 H   0  0  0  0  0  0
    8.4863    4.3403   -1.2617 H   0  0  0  0  0  0
    5.9362    5.0718   -1.6867 H   0  0  0  0  0  0
   -0.4599    2.7968   -0.3276 H   0  0  0  0  0  0
   -3.4616    3.0435    0.6440 H   0  0  0  0  0  0
  1  2  1  0  0  0
  1 49  1  0  0  0
  1 50  1  0  0  0
  1 51  1  0  0  0
  2  3  1  0  0  0
  2 47  1  0  0  0
  2 52  1  0  0  0
  3  4  1  0  0  0
  3 53  1  0  0  0
  3 54  1  0  0  0
  4  5  1  0  0  0
  4 55  1  0  0  0
  4 56  1  0  0  0
  5  6  1  0  0  0
  5 57  1  0  0  0
  5 58  1  0  0  0
  6  7  1  0  0  0
  6 23  1  0  0  0
  6 59  1  0  0  0
  7  8  1  0  0  0
  7 12  1  0  0  0
  8  9  1  0  0  0
  8 60  1  0  0  0
  8 61  1  0  0  0
  9 10  1  0  0  0
  9 62  1  0  0  0
  9 63  1  0  0  0
 10 11  2  0  0  0
 10 14  1  0  0  0
 11 12  1  0  0  0
 11 64  1  0  0  0
 12 13  2  0  0  0
 14 15  2  0  0  0
 14 21  1  0  0  0
 15 16  1  0  0  0
 15 17  1  0  0  0
 17 18  2  0  0  0
 17 65  1  0  0  0
 18 19  1  0  0  0
 18 66  1  0  0  0
 19 20  1  0  0  0
 19 21  2  0  0  0
 21 22  1  0  0  0
 23 24  1  0  0  0
 23 28  2  0  0  0
 24 25  2  0  0  0
 24 67  1  0  0  0
 25 26  1  0  0  0
 25 29  1  0  0  0
 26 27  2  0  0  0
 26 68  1  0  0  0
 27 28  1  0  0  0
 27 69  1  0  0  0
 29 30  2  0  0  0
 29 45  1  0  0  0
 30 31  1  0  0  0
 30 70  1  0  0  0
 31 32  2  0  0  0
 31 71  1  0  0  0
 32 33  1  0  0  0
 32 44  1  0  0  0
 33 34  1  0  0  0
 33 72  1  0  0  0
 34 35  1  0  0  0
 34 38  2  0  0  0
 35 36  1  0  0  0
 36 37  2  0  0  0
 36 39  1  0  0  0
 37 38  1  0  0  0
 39 40  1  0  0  0
 39 43  2  0  0  0
 40 41  1  0  0  0
 41 42  2  0  0  0
 41 73  1  0  0  0
 42 43  1  0  0  0
 42 74  1  0  0  0
 43 75  1  0  0  0
 44 45  2  0  0  0
 44 76  1  0  0  0
 45 46  1  0  0  0
 46 47  1  0  0  0
 46 77  1  0  0  0
 47 48  2  0  0  0
M  END
> <chembl_id>
CHEMBL4113531

> <chembl_pref_name>
None

> <i_m_ct_stereo_status>
1

> <s_m_source_file>
sdf/actives_sanitized.sdf

> <i_m_source_file_index>
287

> <i_lp_mmshare_version>
49012

> <i_f3d_flags>
0

> <s_epik_input>
W2NIXTFbY0hdW2NIXW9jMS1jKG5uMilvYzJbTkhdYyhbY0hdW2NIXTMpW2NIXWMoYzNjKFtjSF1jNDUpW2NIXVtjSF1uNSlbTkhdQyg9TylbQ0BIXShbQ0gzXSlbQ0gyXVtDSDJdW0NIMl1bQ0BASF00TjZbQ0gyXVtDSDJdQyg9W0NIXUM2PU8pYzdjKEYpW2NIXVtjSF1jKENsKWM3Rg==

> <s_epik_cmdline>
J2VwaWtfcHl0aG9uJywgJy1waHQnLCAnMC41JywgJy1waCcsICc3LjUnLCAnLW50JywgJy1tYScsICcyMDAnLCAnLWltYWUnLCAnPGluZmlsZS5tYWU+JywgJy1vbWFlJywgJzxvdXRmaWxlLm1hZT4n

> <r_lp_tautomer_probability>
1

> <r_epik_Ionization_Penalty>
  0.0001

> <r_epik_Ionization_Penalty_Charging>
  0.0000

> <r_epik_Ionization_Penalty_Neutral>
  0.0001

> <r_epik_State_Penalty>
 -0.0000

> <r_epik_Charging_Adjusted_Penalty>
0

> <i_epik_Tot_Q>
0

> <i_epik_Tot_abs_Q>
0

> <s_lp_Force_Field>
OPLS3e

> <r_lp_Energy>
99.192332

> <b_lp_Chiralities_Consistent>
1

> <s_lp_Variant>
sdf/actives_sanitized.sdf:287-1

$$$$
sdf/actives_sanitized.sdf:288
                    3D
 Schrodinger Suite 2020-1.
 70 74  0  0  1  0            999 V2000
   -5.2316    1.7801   -0.9394 C   0  0  0  0  0  0
   -4.1176    0.9608   -1.6223 C   0  0  2  0  0  0
   -2.7313    1.6618   -1.5108 C   0  0  0  0  0  0
   -2.0800    1.6095   -0.1030 C   0  0  0  0  0  0
   -0.5301    1.5040   -0.1071 C   0  0  0  0  0  0
    0.0555    0.0568   -0.1938 C   0  0  2  0  0  0
    1.5368    0.0120   -0.1003 N   0  0  0  0  0  0
    2.3513    1.0385   -0.8179 C   0  0  0  0  0  0
    3.7765    0.5418   -1.1834 C   0  0  0  0  0  0
    4.3822   -0.1562    0.0216 C   0  0  0  0  0  0
    3.5596   -0.8954    0.7922 C   0  0  0  0  0  0
    2.1268   -0.9989    0.6182 C   0  0  0  0  0  0
    1.5146   -1.9546    1.0985 O   0  0  0  0  0  0
    5.8539   -0.2710    0.1781 C   0  0  0  0  0  0
    6.4559   -0.0146    1.4225 C   0  0  0  0  0  0
    5.7069    0.3481    2.4910 F   0  0  0  0  0  0
    7.8382   -0.1127    1.5773 C   0  0  0  0  0  0
    8.6406   -0.4659    0.4962 C   0  0  0  0  0  0
    8.0624   -0.7223   -0.7452 C   0  0  0  0  0  0
    9.0730   -1.1615   -2.0764 Cl  0  0  0  0  0  0
    6.6764   -0.6258   -0.9065 C   0  0  0  0  0  0
    6.1363   -0.8955   -2.1192 F   0  0  0  0  0  0
   -0.5036   -0.7229   -1.3875 C   0  0  0  0  0  0
   -1.7050   -1.4199   -1.2459 C   0  0  0  0  0  0
   -2.3548   -1.8969   -2.3870 C   0  0  0  0  0  0
   -1.7096   -1.7781   -3.6239 C   0  0  0  0  0  0
   -0.4601   -1.1562   -3.6745 C   0  0  0  0  0  0
    0.1379   -0.6133   -2.5836 N   0  0  0  0  0  0
   -3.7350   -2.4290   -2.2694 C   0  0  0  0  0  0
   -3.9432   -3.6167   -1.5608 C   0  0  0  0  0  0
   -5.2206   -4.1506   -1.4066 C   0  0  0  0  0  0
   -6.3322   -3.4954   -1.9573 C   0  0  0  0  0  0
   -7.6594   -3.9588   -1.8769 N   0  0  0  0  0  0
   -8.1823   -4.9294   -1.0977 C   0  0  0  0  0  0
   -7.5670   -5.5813   -0.2553 O   0  0  0  0  0  0
   -9.6713   -5.2005   -1.2915 C   0  0  0  0  0  0
   -6.1339   -2.3075   -2.6650 C   0  0  0  0  0  0
   -4.8553   -1.7599   -2.8091 C   0  0  0  0  0  0
   -4.7586   -0.5726   -3.5527 N   0  0  0  0  0  0
   -4.4715    0.6716   -3.1056 C   0  0  0  0  0  0
   -4.4908    1.6118   -3.8991 O   0  0  0  0  0  0
   -6.1942    1.2700   -0.9985 H   0  0  0  0  0  0
   -5.3524    2.7624   -1.3989 H   0  0  0  0  0  0
   -5.0151    1.9355    0.1180 H   0  0  0  0  0  0
   -4.0610    0.0167   -1.0853 H   0  0  0  0  0  0
   -2.0483    1.2202   -2.2358 H   0  0  0  0  0  0
   -2.8118    2.7022   -1.8311 H   0  0  0  0  0  0
   -2.3740    2.5110    0.4364 H   0  0  0  0  0  0
   -2.4895    0.7880    0.4859 H   0  0  0  0  0  0
   -0.1363    2.1381   -0.9017 H   0  0  0  0  0  0
   -0.1685    1.9473    0.8221 H   0  0  0  0  0  0
   -0.3349   -0.4457    0.6938 H   0  0  0  0  0  0
    1.8138    1.4776   -1.6581 H   0  0  0  0  0  0
    2.4793    1.8557   -0.1067 H   0  0  0  0  0  0
    3.6784   -0.1716   -2.0029 H   0  0  0  0  0  0
    4.3999    1.3663   -1.5309 H   0  0  0  0  0  0
    3.9861   -1.4904    1.5877 H   0  0  0  0  0  0
    8.2903    0.0900    2.5371 H   0  0  0  0  0  0
    9.7107   -0.5396    0.6236 H   0  0  0  0  0  0
   -2.1922   -1.4748   -0.2828 H   0  0  0  0  0  0
   -2.1750   -2.1420   -4.5284 H   0  0  0  0  0  0
    0.0636   -1.0492   -4.6130 H   0  0  0  0  0  0
   -3.1026   -4.1415   -1.1297 H   0  0  0  0  0  0
   -5.3111   -5.0803   -0.8684 H   0  0  0  0  0  0
   -8.3089   -3.4659   -2.4719 H   0  0  0  0  0  0
  -10.1018   -4.5664   -2.0674 H   0  0  0  0  0  0
  -10.2104   -5.0157   -0.3621 H   0  0  0  0  0  0
   -9.8285   -6.2410   -1.5766 H   0  0  0  0  0  0
   -6.9829   -1.7973   -3.1002 H   0  0  0  0  0  0
   -5.0437   -0.6478   -4.5183 H   0  0  0  0  0  0
  1  2  1  0  0  0
  1 42  1  0  0  0
  1 43  1  0  0  0
  1 44  1  0  0  0
  2  3  1  0  0  0
  2 40  1  0  0  0
  2 45  1  0  0  0
  3  4  1  0  0  0
  3 46  1  0  0  0
  3 47  1  0  0  0
  4  5  1  0  0  0
  4 48  1  0  0  0
  4 49  1  0  0  0
  5  6  1  0  0  0
  5 50  1  0  0  0
  5 51  1  0  0  0
  6  7  1  0  0  0
  6 23  1  0  0  0
  6 52  1  0  0  0
  7  8  1  0  0  0
  7 12  1  0  0  0
  8  9  1  0  0  0
  8 53  1  0  0  0
  8 54  1  0  0  0
  9 10  1  0  0  0
  9 55  1  0  0  0
  9 56  1  0  0  0
 10 11  2  0  0  0
 10 14  1  0  0  0
 11 12  1  0  0  0
 11 57  1  0  0  0
 12 13  2  0  0  0
 14 15  2  0  0  0
 14 21  1  0  0  0
 15 16  1  0  0  0
 15 17  1  0  0  0
 17 18  2  0  0  0
 17 58  1  0  0  0
 18 19  1  0  0  0
 18 59  1  0  0  0
 19 20  1  0  0  0
 19 21  2  0  0  0
 21 22  1  0  0  0
 23 24  1  0  0  0
 23 28  2  0  0  0
 24 25  2  0  0  0
 24 60  1  0  0  0
 25 26  1  0  0  0
 25 29  1  0  0  0
 26 27  2  0  0  0
 26 61  1  0  0  0
 27 28  1  0  0  0
 27 62  1  0  0  0
 29 30  2  0  0  0
 29 38  1  0  0  0
 30 31  1  0  0  0
 30 63  1  0  0  0
 31 32  2  0  0  0
 31 64  1  0  0  0
 32 33  1  0  0  0
 32 37  1  0  0  0
 33 34  1  0  0  0
 33 65  1  0  0  0
 34 35  2  0  0  0
 34 36  1  0  0  0
 36 66  1  0  0  0
 36 67  1  0  0  0
 36 68  1  0  0  0
 37 38  2  0  0  0
 37 69  1  0  0  0
 38 39  1  0  0  0
 39 40  1  0  0  0
 39 70  1  0  0  0
 40 41  2  0  0  0
M  END
> <chembl_id>
CHEMBL4109421

> <chembl_pref_name>
None

> <i_m_ct_stereo_status>
1

> <s_m_source_file>
sdf/actives_sanitized.sdf

> <i_m_source_file_index>
288

> <i_lp_mmshare_version>
49012

> <i_f3d_flags>
0

> <s_epik_input>
bjFbY0hdW2NIXWMoW2NIXWMxMiljM2MoW2NIXWMoW2NIXVtjSF0zKVtOSF1DKD1PKVtDSDNdKVtOSF1DKD1PKVtDQEhdKFtDSDNdKVtDSDJdW0NIMl1bQ0gyXVtDQEBIXTJONFtDSDJdW0NIMl1DKD1bQ0hdQzQ9TyljNWMoRilbY0hdW2NIXWMoQ2wpYzVG

> <s_epik_cmdline>
J2VwaWtfcHl0aG9uJywgJy1waHQnLCAnMC41JywgJy1waCcsICc3LjUnLCAnLW50JywgJy1tYScsICcyMDAnLCAnLWltYWUnLCAnPGluZmlsZS5tYWU+JywgJy1vbWFlJywgJzxvdXRmaWxlLm1hZT4n

> <r_lp_tautomer_probability>
1

> <r_epik_Ionization_Penalty>
  0.0001

> <r_epik_Ionization_Penalty_Charging>
  0.0000

> <r_epik_Ionization_Penalty_Neutral>
  0.0001

> <r_epik_State_Penalty>
 -0.0000

> <r_epik_Charging_Adjusted_Penalty>
0

> <i_epik_Tot_Q>
0

> <i_epik_Tot_abs_Q>
0

> <s_lp_Force_Field>
OPLS3e

> <r_lp_Energy>
95.774741

> <b_lp_Chiralities_Consistent>
1

> <s_lp_Variant>
sdf/actives_sanitized.sdf:288-1

$$$$
sdf/actives_sanitized.sdf:289
                    3D
 Schrodinger Suite 2020-1.
 54 58  0  0  1  0            999 V2000
   -6.5556    0.6946   -0.1429 C   0  0  0  0  0  0
   -6.6112    1.9536    0.4599 C   0  0  0  0  0  0
   -5.4537    2.6786    0.7588 C   0  0  0  0  0  0
   -5.3374    0.1003   -0.4760 C   0  0  0  0  0  0
   -8.1495    2.6341    0.8459 Cl  0  0  0  0  0  0
   -4.1591    0.8041   -0.1893 C   0  0  0  0  0  0
   -4.2360    2.0803    0.4229 C   0  0  0  0  0  0
   -2.9211    2.4640    0.5466 N   0  0  0  0  0  0
   -2.1443    1.4489    0.0349 C   0  0  0  0  0  0
   -2.8576    0.4443   -0.4200 N   0  0  0  0  0  0
   -0.6248    1.5538   -0.0384 C   0  0  1  0  0  0
    0.0676    0.1907    0.2351 C   0  0  0  0  0  0
    1.5321    0.2474    0.2551 N   0  0  0  0  0  0
    2.3391   -0.1782   -0.7333 C   0  0  0  0  0  0
    3.8098   -0.0801   -0.4324 C   0  0  0  0  0  0
    1.9511   -0.6322   -1.8100 O   0  0  0  0  0  0
   -0.1819    2.2054   -1.3527 C   0  0  0  0  0  0
    0.4660    3.4469   -1.3409 C   0  0  0  0  0  0
    0.8614    4.0490   -2.5357 C   0  0  0  0  0  0
    0.6193    3.4119   -3.7521 C   0  0  0  0  0  0
   -0.0226    2.1742   -3.7745 C   0  0  0  0  0  0
   -0.4243    1.5752   -2.5806 C   0  0  0  0  0  0
    4.5583    1.0272   -0.8755 C   0  0  0  0  0  0
    5.9249    1.1016   -0.6055 C   0  0  0  0  0  0
    6.5752    0.0832    0.1023 C   0  0  0  0  0  0
    5.8298   -1.0160    0.5415 C   0  0  0  0  0  0
    4.4621   -1.1051    0.2805 C   0  0  0  0  0  0
    3.6248   -2.5099    0.8599 Cl  0  0  0  0  0  0
    7.9658    0.1537    0.3693 N   0  0  0  0  0  0
    8.7170   -0.5269    1.2953 C   0  0  0  0  0  0
    9.9748   -0.1770    1.2232 N   0  0  0  0  0  0
    9.9627    0.7123    0.2427 C   0  0  0  0  0  0
    8.7933    0.9650   -0.3070 N   0  0  0  0  0  0
    3.8462    2.3312   -1.7691 Cl  0  0  0  0  0  0
   11.2207    1.4249   -0.2008 C   0  0  0  0  0  0
   -0.2573    1.5555   -4.9538 F   0  0  0  0  0  0
   -7.4734    0.1669   -0.3582 H   0  0  0  0  0  0
   -5.5049    3.6521    1.2239 H   0  0  0  0  0  0
   -5.3080   -0.8733   -0.9429 H   0  0  0  0  0  0
   -2.5416    3.3188    0.9270 H   0  0  0  0  0  0
   -0.2988    2.2123    0.7697 H   0  0  0  0  0  0
   -0.2497   -0.1833    1.2095 H   0  0  0  0  0  0
   -0.2790   -0.5582   -0.4808 H   0  0  0  0  0  0
    1.9549    0.5773    1.1105 H   0  0  0  0  0  0
    0.6645    3.9511   -0.4065 H   0  0  0  0  0  0
    1.3599    5.0070   -2.5181 H   0  0  0  0  0  0
    0.9297    3.8767   -4.6763 H   0  0  0  0  0  0
   -0.9211    0.6164   -2.6106 H   0  0  0  0  0  0
    6.4767    1.9629   -0.9548 H   0  0  0  0  0  0
    6.3057   -1.8214    1.0812 H   0  0  0  0  0  0
    8.2732   -1.2387    1.9751 H   0  0  0  0  0  0
   11.0301    2.3150   -0.8017 H   0  0  0  0  0  0
   11.9158    0.7586   -0.7119 H   0  0  0  0  0  0
   11.7742    1.7789    0.6697 H   0  0  0  0  0  0
  1  2  2  0  0  0
  1  4  1  0  0  0
  1 37  1  0  0  0
  2  3  1  0  0  0
  2  5  1  0  0  0
  3  7  2  0  0  0
  3 38  1  0  0  0
  4  6  2  0  0  0
  4 39  1  0  0  0
  6  7  1  0  0  0
  6 10  1  0  0  0
  7  8  1  0  0  0
  8  9  1  0  0  0
  8 40  1  0  0  0
  9 10  2  0  0  0
  9 11  1  0  0  0
 11 12  1  0  0  0
 11 17  1  0  0  0
 11 41  1  0  0  0
 12 13  1  0  0  0
 12 42  1  0  0  0
 12 43  1  0  0  0
 13 14  1  0  0  0
 13 44  1  0  0  0
 14 15  1  0  0  0
 14 16  2  0  0  0
 15 23  2  0  0  0
 15 27  1  0  0  0
 17 18  2  0  0  0
 17 22  1  0  0  0
 18 19  1  0  0  0
 18 45  1  0  0  0
 19 20  2  0  0  0
 19 46  1  0  0  0
 20 21  1  0  0  0
 20 47  1  0  0  0
 21 22  2  0  0  0
 21 36  1  0  0  0
 22 48  1  0  0  0
 23 24  1  0  0  0
 23 34  1  0  0  0
 24 25  2  0  0  0
 24 49  1  0  0  0
 25 26  1  0  0  0
 25 29  1  0  0  0
 26 27  2  0  0  0
 26 50  1  0  0  0
 27 28  1  0  0  0
 29 30  1  0  0  0
 29 33  1  0  0  0
 30 31  2  0  0  0
 30 51  1  0  0  0
 31 32  1  0  0  0
 32 33  2  0  0  0
 32 35  1  0  0  0
 35 52  1  0  0  0
 35 53  1  0  0  0
 35 54  1  0  0  0
M  END
> <chembl_id>
CHEMBL3627895

> <chembl_pref_name>
None

> <i_m_ct_stereo_status>
1

> <s_m_source_file>
sdf/actives_sanitized.sdf

> <i_m_source_file_index>
289

> <i_lp_mmshare_version>
49012

> <i_f3d_flags>
0

> <s_epik_input>
W2NIXTFbY0hdYyhDbClbY0hdYyhjMTIpW25IXWMobjIpW0NASF0oYzNbY0hdW2NIXVtjSF1jKEYpW2NIXTMpW0NIMl1bTkhdQyg9TyljNGMoQ2wpW2NIXWMoW2NIXWM0Q2wpLW41W2NIXW5jKG41KVtDSDNd

> <s_epik_cmdline>
J2VwaWtfcHl0aG9uJywgJy1waHQnLCAnMC41JywgJy1waCcsICc3LjUnLCAnLW50JywgJy1tYScsICcyMDAnLCAnLWltYWUnLCAnPGluZmlsZS5tYWU+JywgJy1vbWFlJywgJzxvdXRmaWxlLm1hZT4n

> <r_lp_tautomer_probability>
1

> <r_epik_Ionization_Penalty>
  0.0066

> <r_epik_Ionization_Penalty_Charging>
  0.0000

> <r_epik_Ionization_Penalty_Neutral>
  0.0066

> <r_epik_State_Penalty>
 -0.0000

> <r_epik_Charging_Adjusted_Penalty>
0

> <i_epik_Tot_Q>
0

> <i_epik_Tot_abs_Q>
0

> <s_lp_Force_Field>
OPLS3e

> <r_lp_Energy>
30.7653

> <b_lp_Chiralities_Consistent>
1

> <s_lp_Variant>
sdf/actives_sanitized.sdf:289-1

$$$$
sdf/actives_sanitized.sdf:290
                    3D
 Schrodinger Suite 2020-1.
 66 71  0  0  1  0            999 V2000
   -4.1376   -4.2731   -0.2907 C   0  0  0  0  0  0
   -5.1982   -3.9521   -1.1554 C   0  0  0  0  0  0
   -6.1733   -4.8961   -1.4668 C   0  0  0  0  0  0
   -6.0953   -6.1764   -0.9286 C   0  0  0  0  0  0
   -5.0460   -6.5225   -0.0840 C   0  0  0  0  0  0
   -4.0725   -5.5783    0.2266 C   0  0  0  0  0  0
   -1.8082    3.1225    0.6256 C   0  0  0  0  0  0
   -0.7154    2.2611    0.5264 C   0  0  0  0  0  0
   -3.3649    1.2974    0.1934 C   0  0  0  0  0  0
   -3.1055    2.6410    0.4581 C   0  0  0  0  0  0
   -2.2631    0.4356    0.1002 C   0  0  0  0  0  0
   -0.9272    0.8972    0.2595 C   0  0  0  0  0  0
   -0.0541   -0.2354    0.0972 C   0  0  0  0  0  0
   -2.1939   -0.9233   -0.1412 N   0  0  0  0  0  0
   -0.8672   -1.3312   -0.1666 C   0  0  0  0  0  0
   -0.4921   -2.7984   -0.3882 C   0  0  0  0  0  0
   -1.7328   -3.6708   -0.7070 C   0  0  0  0  0  0
   -3.0146   -3.2537    0.0658 C   0  0  1  0  0  0
   -3.3342   -1.8015   -0.4283 C   0  0  0  0  0  0
   -2.7642   -3.3148    1.5238 N   0  0  0  0  0  0
   -3.6182   -2.9743    2.5081 C   0  0  0  0  0  0
   -3.0278   -3.0492    3.8878 C   0  0  0  0  0  0
   -4.7914   -2.6415    2.3418 O   0  0  0  0  0  0
   -3.1441   -4.2292    4.6483 C   0  0  0  0  0  0
   -2.5937   -4.2924    5.9287 C   0  0  0  0  0  0
   -1.9239   -3.1925    6.4726 C   0  0  0  0  0  0
   -1.8072   -2.0209    5.7189 C   0  0  0  0  0  0
   -2.3512   -1.9419    4.4364 C   0  0  0  0  0  0
   -2.1537   -0.4523    3.5687 Cl  0  0  0  0  0  0
   -1.3720   -3.2643    7.7698 N   0  0  0  0  0  0
   -1.5724    4.5961    0.9037 C   0  0  0  0  0  0
   -3.9577   -5.6406    4.0510 Cl  0  0  0  0  0  0
   -0.9124   -4.3679    8.4553 C   0  0  0  0  0  0
   -0.4661   -4.0593    9.6471 N   0  0  0  0  0  0
   -0.6256   -2.6849    9.7907 N   0  0  0  0  0  0
   -1.1573   -2.2488    8.6761 C   0  0  0  0  0  0
    1.4670   -0.2435    0.1896 C   0  0  2  0  0  0
    1.8780    0.4720    1.3405 O   0  0  0  0  0  0
    2.1476    0.3222   -1.0797 C   0  0  0  0  0  0
    3.4759    0.2497   -0.9788 F   0  0  0  0  0  0
    1.8036   -0.3725   -2.1650 F   0  0  0  0  0  0
    1.8444    1.6028   -1.2984 F   0  0  0  0  0  0
   -5.2991   -2.9726   -1.5948 H   0  0  0  0  0  0
   -6.9887   -4.6349   -2.1252 H   0  0  0  0  0  0
   -6.8526   -6.9075   -1.1706 H   0  0  0  0  0  0
   -4.9856   -7.5192    0.3279 H   0  0  0  0  0  0
   -3.2620   -5.8666    0.8800 H   0  0  0  0  0  0
    0.2865    2.6443    0.6536 H   0  0  0  0  0  0
   -4.3793    0.9479    0.0704 H   0  0  0  0  0  0
   -3.9407    3.3223    0.5347 H   0  0  0  0  0  0
    0.2433   -2.8952   -1.1876 H   0  0  0  0  0  0
   -0.0155   -3.1819    0.5147 H   0  0  0  0  0  0
   -1.9264   -3.6064   -1.7799 H   0  0  0  0  0  0
   -1.4858   -4.7183   -0.5264 H   0  0  0  0  0  0
   -4.2359   -1.4092    0.0429 H   0  0  0  0  0  0
   -3.4908   -1.7757   -1.5076 H   0  0  0  0  0  0
   -1.7879   -3.3064    1.7800 H   0  0  0  0  0  0
   -2.7002   -5.2041    6.4988 H   0  0  0  0  0  0
   -1.2855   -1.1634    6.1197 H   0  0  0  0  0  0
   -2.4723    5.1933    0.7505 H   0  0  0  0  0  0
   -0.8046    4.9858    0.2343 H   0  0  0  0  0  0
   -1.2210    4.7379    1.9260 H   0  0  0  0  0  0
   -0.9352   -5.3508    8.0079 H   0  0  0  0  0  0
   -1.4267   -1.2291    8.4437 H   0  0  0  0  0  0
    1.8223   -1.2665    0.3212 H   0  0  0  0  0  0
    1.4877    0.0574    2.1132 H   0  0  0  0  0  0
  1  2  2  0  0  0
  1  6  1  0  0  0
  1 18  1  0  0  0
  2  3  1  0  0  0
  2 43  1  0  0  0
  3  4  2  0  0  0
  3 44  1  0  0  0
  4  5  1  0  0  0
  4 45  1  0  0  0
  5  6  2  0  0  0
  5 46  1  0  0  0
  6 47  1  0  0  0
  7  8  2  0  0  0
  7 10  1  0  0  0
  7 31  1  0  0  0
  8 12  1  0  0  0
  8 48  1  0  0  0
  9 11  1  0  0  0
  9 10  2  0  0  0
  9 49  1  0  0  0
 10 50  1  0  0  0
 11 12  2  0  0  0
 11 14  1  0  0  0
 12 13  1  0  0  0
 13 15  2  0  0  0
 13 37  1  0  0  0
 14 15  1  0  0  0
 14 19  1  0  0  0
 15 16  1  0  0  0
 16 17  1  0  0  0
 16 51  1  0  0  0
 16 52  1  0  0  0
 17 18  1  0  0  0
 17 53  1  0  0  0
 17 54  1  0  0  0
 18 19  1  0  0  0
 18 20  1  0  0  0
 19 55  1  0  0  0
 19 56  1  0  0  0
 20 21  1  0  0  0
 20 57  1  0  0  0
 21 22  1  0  0  0
 21 23  2  0  0  0
 22 24  2  0  0  0
 22 28  1  0  0  0
 24 25  1  0  0  0
 24 32  1  0  0  0
 25 26  2  0  0  0
 25 58  1  0  0  0
 26 27  1  0  0  0
 26 30  1  0  0  0
 27 28  2  0  0  0
 27 59  1  0  0  0
 28 29  1  0  0  0
 30 33  1  0  0  0
 30 36  1  0  0  0
 31 60  1  0  0  0
 31 61  1  0  0  0
 31 62  1  0  0  0
 33 34  2  0  0  0
 33 63  1  0  0  0
 34 35  1  0  0  0
 35 36  2  0  0  0
 36 64  1  0  0  0
 37 38  1  0  0  0
 37 39  1  0  0  0
 37 65  1  0  0  0
 38 66  1  0  0  0
 39 40  1  0  0  0
 39 41  1  0  0  0
 39 42  1  0  0  0
M  END
> <chembl_id>
CHEMBL3629109

> <chembl_pref_name>
None

> <i_m_ct_stereo_status>
1

> <s_m_source_file>
sdf/actives_sanitized.sdf

> <i_m_source_file_index>
290

> <i_lp_mmshare_version>
49012

> <i_f3d_flags>
0

> <s_epik_input>
W2NIXTFbY0hdYyhbQ0gzXSlbY0hdYyhjMTIpYyhbQ0BIXShbT0hdKUMoRikoRilGKWMzbjJbQ0gyXVtDQF0oW0NIMl1bQ0gyXTMpKGM0W2NIXVtjSF1bY0hdW2NIXVtjSF00KVtOSF1DKD1PKWM1YyhDbClbY0hdYyhbY0hdYzVDbCktbjZbY0hdbm5bY0hdNg==

> <s_epik_cmdline>
J2VwaWtfcHl0aG9uJywgJy1waHQnLCAnMC41JywgJy1waCcsICc3LjUnLCAnLW50JywgJy1tYScsICcyMDAnLCAnLWltYWUnLCAnPGluZmlsZS5tYWU+JywgJy1vbWFlJywgJzxvdXRmaWxlLm1hZT4n

> <r_lp_tautomer_probability>
1

> <r_epik_Ionization_Penalty>
  0.0246

> <r_epik_Ionization_Penalty_Charging>
  0.0000

> <r_epik_Ionization_Penalty_Neutral>
  0.0246

> <r_epik_State_Penalty>
  0.0198

> <r_epik_Charging_Adjusted_Penalty>
0.0197572721863939

> <i_epik_Tot_Q>
0

> <i_epik_Tot_abs_Q>
0

> <s_lp_Force_Field>
OPLS3e

> <r_lp_Energy>
39.918619

> <b_lp_Chiralities_Consistent>
1

> <s_lp_Variant>
sdf/actives_sanitized.sdf:290-1

$$$$
sdf/actives_sanitized.sdf:291
                    3D
 Schrodinger Suite 2020-1.
 65 69  0  0  1  0            999 V2000
   -5.2412    1.8082   -0.9533 C   0  0  0  0  0  0
   -4.1309    0.9791   -1.6308 C   0  0  2  0  0  0
   -2.7399    1.6693   -1.5143 C   0  0  0  0  0  0
   -2.0941    1.6142   -0.1040 C   0  0  0  0  0  0
   -0.5447    1.5060   -0.1040 C   0  0  0  0  0  0
    0.0401    0.0588   -0.1954 C   0  0  2  0  0  0
    1.5210    0.0114   -0.1004 N   0  0  0  0  0  0
    2.3385    1.0477   -0.8003 C   0  0  0  0  0  0
    3.7639    0.5553   -1.1707 C   0  0  0  0  0  0
    4.3649   -0.1646    0.0234 C   0  0  0  0  0  0
    3.5404   -0.9142    0.7813 C   0  0  0  0  0  0
    2.1077   -1.0117    0.6037 C   0  0  0  0  0  0
    1.4927   -1.9737    1.0679 O   0  0  0  0  0  0
    5.8347   -0.2916    0.1777 C   0  0  0  0  0  0
    6.4414   -0.0324    1.4189 C   0  0  0  0  0  0
    5.6977    0.3451    2.4860 F   0  0  0  0  0  0
    7.8229   -0.1459    1.5720 C   0  0  0  0  0  0
    8.6190   -0.5179    0.4923 C   0  0  0  0  0  0
    8.0350   -0.7778   -0.7458 C   0  0  0  0  0  0
    9.0366   -1.2433   -2.0749 Cl  0  0  0  0  0  0
    6.6501   -0.6651   -0.9054 C   0  0  0  0  0  0
    6.1028   -0.9388   -2.1142 F   0  0  0  0  0  0
   -0.5195   -0.7179   -1.3909 C   0  0  0  0  0  0
   -1.7226   -1.4123   -1.2511 C   0  0  0  0  0  0
   -2.3725   -1.8866   -2.3933 C   0  0  0  0  0  0
   -1.7256   -1.7683   -3.6295 C   0  0  0  0  0  0
   -0.4748   -1.1491   -3.6782 C   0  0  0  0  0  0
    0.1235   -0.6084   -2.5862 N   0  0  0  0  0  0
   -3.7553   -2.4119   -2.2764 C   0  0  0  0  0  0
   -3.9710   -3.5951   -1.5594 C   0  0  0  0  0  0
   -5.2537   -4.1175   -1.4043 C   0  0  0  0  0  0
   -6.3469   -3.4595   -1.9643 C   0  0  0  0  0  0
   -7.6293   -3.9850   -1.8160 N   0  0  0  0  0  0
   -6.1549   -2.2742   -2.6735 C   0  0  0  0  0  0
   -4.8720   -1.7368   -2.8196 C   0  0  0  0  0  0
   -4.7681   -0.5511   -3.5644 N   0  0  0  0  0  0
   -4.4799    0.6923   -3.1157 C   0  0  0  0  0  0
   -4.4932    1.6332   -3.9085 O   0  0  0  0  0  0
   -6.2076    1.3055   -1.0144 H   0  0  0  0  0  0
   -5.3530    2.7905   -1.4148 H   0  0  0  0  0  0
   -5.0263    1.9634    0.1045 H   0  0  0  0  0  0
   -4.0839    0.0348   -1.0931 H   0  0  0  0  0  0
   -2.0578    1.2221   -2.2365 H   0  0  0  0  0  0
   -2.8103    2.7098   -1.8365 H   0  0  0  0  0  0
   -2.3876    2.5158    0.4353 H   0  0  0  0  0  0
   -2.5068    0.7929    0.4829 H   0  0  0  0  0  0
   -0.1493    2.1432   -0.8952 H   0  0  0  0  0  0
   -0.1848    1.9451    0.8276 H   0  0  0  0  0  0
   -0.3503   -0.4458    0.6909 H   0  0  0  0  0  0
    1.8038    1.5014   -1.6345 H   0  0  0  0  0  0
    2.4661    1.8528   -0.0754 H   0  0  0  0  0  0
    3.6669   -0.1430   -2.0031 H   0  0  0  0  0  0
    4.3904    1.3843   -1.5015 H   0  0  0  0  0  0
    3.9653   -1.5236    1.5669 H   0  0  0  0  0  0
    8.2787    0.0583    2.5298 H   0  0  0  0  0  0
    9.6885   -0.6044    0.6186 H   0  0  0  0  0  0
   -2.2108   -1.4667   -0.2885 H   0  0  0  0  0  0
   -2.1908   -2.1297   -4.5351 H   0  0  0  0  0  0
    0.0492   -1.0412   -4.6162 H   0  0  0  0  0  0
   -3.1350   -4.1200   -1.1193 H   0  0  0  0  0  0
   -5.3901   -5.0348   -0.8498 H   0  0  0  0  0  0
   -8.4139   -3.5050   -2.2328 H   0  0  0  0  0  0
   -7.7591   -4.8412   -1.2965 H   0  0  0  0  0  0
   -7.0057   -1.7653   -3.1057 H   0  0  0  0  0  0
   -5.0548   -0.6258   -4.5294 H   0  0  0  0  0  0
  1  2  1  0  0  0
  1 39  1  0  0  0
  1 40  1  0  0  0
  1 41  1  0  0  0
  2  3  1  0  0  0
  2 37  1  0  0  0
  2 42  1  0  0  0
  3  4  1  0  0  0
  3 43  1  0  0  0
  3 44  1  0  0  0
  4  5  1  0  0  0
  4 45  1  0  0  0
  4 46  1  0  0  0
  5  6  1  0  0  0
  5 47  1  0  0  0
  5 48  1  0  0  0
  6  7  1  0  0  0
  6 23  1  0  0  0
  6 49  1  0  0  0
  7  8  1  0  0  0
  7 12  1  0  0  0
  8  9  1  0  0  0
  8 50  1  0  0  0
  8 51  1  0  0  0
  9 10  1  0  0  0
  9 52  1  0  0  0
  9 53  1  0  0  0
 10 11  2  0  0  0
 10 14  1  0  0  0
 11 12  1  0  0  0
 11 54  1  0  0  0
 12 13  2  0  0  0
 14 15  2  0  0  0
 14 21  1  0  0  0
 15 16  1  0  0  0
 15 17  1  0  0  0
 17 18  2  0  0  0
 17 55  1  0  0  0
 18 19  1  0  0  0
 18 56  1  0  0  0
 19 20  1  0  0  0
 19 21  2  0  0  0
 21 22  1  0  0  0
 23 24  1  0  0  0
 23 28  2  0  0  0
 24 25  2  0  0  0
 24 57  1  0  0  0
 25 26  1  0  0  0
 25 29  1  0  0  0
 26 27  2  0  0  0
 26 58  1  0  0  0
 27 28  1  0  0  0
 27 59  1  0  0  0
 29 30  2  0  0  0
 29 35  1  0  0  0
 30 31  1  0  0  0
 30 60  1  0  0  0
 31 32  2  0  0  0
 31 61  1  0  0  0
 32 33  1  0  0  0
 32 34  1  0  0  0
 33 62  1  0  0  0
 33 63  1  0  0  0
 34 35  2  0  0  0
 34 64  1  0  0  0
 35 36  1  0  0  0
 36 37  1  0  0  0
 36 65  1  0  0  0
 37 38  2  0  0  0
M  END
> <chembl_id>
CHEMBL4106988

> <chembl_pref_name>
None

> <i_m_ct_stereo_status>
1

> <s_m_source_file>
sdf/actives_sanitized.sdf

> <i_m_source_file_index>
291

> <i_lp_mmshare_version>
49012

> <i_f3d_flags>
0

> <s_epik_input>
bjFbY0hdW2NIXWMoW2NIXWMxMiljM2MoW2NIXWMoW05IMl0pW2NIXVtjSF0zKVtOSF1DKD1PKVtDQEhdKFtDSDNdKVtDSDJdW0NIMl1bQ0gyXVtDQEBIXTJONFtDSDJdW0NIMl1DKD1bQ0hdQzQ9TyljNWMoRilbY0hdW2NIXWMoQ2wpYzVG

> <s_epik_cmdline>
J2VwaWtfcHl0aG9uJywgJy1waHQnLCAnMC41JywgJy1waCcsICc3LjUnLCAnLW50JywgJy1tYScsICcyMDAnLCAnLWltYWUnLCAnPGluZmlsZS5tYWU+JywgJy1vbWFlJywgJzxvdXRmaWxlLm1hZT4n

> <r_lp_tautomer_probability>
1

> <r_epik_Ionization_Penalty>
  0.0003

> <r_epik_Ionization_Penalty_Charging>
  0.0000

> <r_epik_Ionization_Penalty_Neutral>
  0.0003

> <r_epik_State_Penalty>
 -0.0000

> <r_epik_Charging_Adjusted_Penalty>
0

> <i_epik_Tot_Q>
0

> <i_epik_Tot_abs_Q>
0

> <s_lp_Force_Field>
OPLS3e

> <r_lp_Energy>
90.29381

> <b_lp_Chiralities_Consistent>
1

> <s_lp_Variant>
sdf/actives_sanitized.sdf:291-1

$$$$
sdf/actives_sanitized.sdf:292
                    3D
 Schrodinger Suite 2020-1.
 63 67  0  0  1  0            999 V2000
   -5.2857    2.9195   -0.8268 C   0  0  0  0  0  0
   -3.9787    2.0982   -0.8856 C   0  0  2  0  0  0
   -3.0449    2.4902    0.3140 C   0  0  0  0  0  0
   -1.9252    1.4994    0.7412 C   0  0  0  0  0  0
   -0.6302    1.5020   -0.1168 C   0  0  0  0  0  0
    0.0949    0.1158   -0.2550 C   0  0  2  0  0  0
    1.5754    0.2190   -0.1759 N   0  0  0  0  0  0
    2.2631   -0.7286    0.7439 C   0  0  0  0  0  0
    3.6630   -0.2162    1.1739 C   0  0  0  0  0  0
    4.4262    0.2220   -0.0653 C   0  0  0  0  0  0
    3.7264    0.8039   -1.0609 C   0  0  0  0  0  0
    2.2866    0.9563   -1.0955 C   0  0  0  0  0  0
    1.7710    1.7356   -1.8981 O   0  0  0  0  0  0
    5.9102    0.2756   -0.0657 C   0  0  0  0  0  0
    6.6193    0.8078    1.0255 C   0  0  0  0  0  0
    5.9685    1.3123    2.0999 F   0  0  0  0  0  0
    8.0136    0.8434    1.0170 C   0  0  0  0  0  0
    8.7216    0.3508   -0.0755 C   0  0  0  0  0  0
    8.0365   -0.1822   -1.1652 C   0  0  0  0  0  0
    8.9294   -0.7958   -2.5114 Cl  0  0  0  0  0  0
    6.6387   -0.2220   -1.1617 C   0  0  0  0  0  0
    5.9913   -0.7622   -2.2231 F   0  0  0  0  0  0
   -0.4458   -0.7279   -1.4352 C   0  0  0  0  0  0
   -1.8038   -0.6876   -1.7380 C   0  0  0  0  0  0
   -2.3003   -1.2758   -2.8952 C   0  0  0  0  0  0
   -1.4155   -2.0192   -3.6847 C   0  0  0  0  0  0
   -0.0727   -2.0920   -3.2966 C   0  0  0  0  0  0
    0.4197   -1.4522   -2.2009 N   0  0  0  0  0  0
   -3.7328   -1.0575   -3.2317 C   0  0  0  0  0  0
   -4.5733   -2.1614   -3.4178 C   0  0  0  0  0  0
   -5.9369   -1.9908   -3.6530 C   0  0  0  0  0  0
   -6.4801   -0.7094   -3.7137 C   0  0  0  0  0  0
   -7.8018   -0.5460   -3.9467 F   0  0  0  0  0  0
   -5.6591    0.4040   -3.5492 C   0  0  0  0  0  0
   -4.2910    0.2412   -3.3055 C   0  0  0  0  0  0
   -3.4778    1.3884   -3.2794 N   0  0  0  0  0  0
   -3.3225    2.2875   -2.2801 C   0  0  0  0  0  0
   -2.6405    3.2912   -2.4821 O   0  0  0  0  0  0
   -5.9780    2.6425   -1.6223 H   0  0  0  0  0  0
   -5.0947    3.9900   -0.9200 H   0  0  0  0  0  0
   -5.8103    2.7606    0.1160 H   0  0  0  0  0  0
   -4.2704    1.0561   -0.7563 H   0  0  0  0  0  0
   -2.6181    3.4833    0.1623 H   0  0  0  0  0  0
   -3.6804    2.6042    1.1939 H   0  0  0  0  0  0
   -1.6291    1.7509    1.7609 H   0  0  0  0  0  0
   -2.3463    0.5002    0.8445 H   0  0  0  0  0  0
   -0.8308    1.8930   -1.1126 H   0  0  0  0  0  0
    0.0465    2.2366    0.3232 H   0  0  0  0  0  0
   -0.2055   -0.4544    0.6248 H   0  0  0  0  0  0
    1.6250   -1.0741    1.5576 H   0  0  0  0  0  0
    2.4657   -1.6153    0.1407 H   0  0  0  0  0  0
    3.5206    0.6364    1.8392 H   0  0  0  0  0  0
    4.2070   -0.9823    1.7275 H   0  0  0  0  0  0
    4.2656    1.2169   -1.9021 H   0  0  0  0  0  0
    8.5485    1.2571    1.8594 H   0  0  0  0  0  0
    9.8014    0.3827   -0.0742 H   0  0  0  0  0  0
   -2.4910   -0.1528   -1.1170 H   0  0  0  0  0  0
   -1.7532   -2.5112   -4.5851 H   0  0  0  0  0  0
    0.6394   -2.6519   -3.8847 H   0  0  0  0  0  0
   -4.1725   -3.1631   -3.3574 H   0  0  0  0  0  0
   -6.5732   -2.8537   -3.7847 H   0  0  0  0  0  0
   -6.0863    1.3926   -3.6360 H   0  0  0  0  0  0
   -2.9335    1.5445   -4.1153 H   0  0  0  0  0  0
  1  2  1  0  0  0
  1 39  1  0  0  0
  1 40  1  0  0  0
  1 41  1  0  0  0
  2  3  1  0  0  0
  2 37  1  0  0  0
  2 42  1  0  0  0
  3  4  1  0  0  0
  3 43  1  0  0  0
  3 44  1  0  0  0
  4  5  1  0  0  0
  4 45  1  0  0  0
  4 46  1  0  0  0
  5  6  1  0  0  0
  5 47  1  0  0  0
  5 48  1  0  0  0
  6  7  1  0  0  0
  6 23  1  0  0  0
  6 49  1  0  0  0
  7  8  1  0  0  0
  7 12  1  0  0  0
  8  9  1  0  0  0
  8 50  1  0  0  0
  8 51  1  0  0  0
  9 10  1  0  0  0
  9 52  1  0  0  0
  9 53  1  0  0  0
 10 11  2  0  0  0
 10 14  1  0  0  0
 11 12  1  0  0  0
 11 54  1  0  0  0
 12 13  2  0  0  0
 14 15  2  0  0  0
 14 21  1  0  0  0
 15 16  1  0  0  0
 15 17  1  0  0  0
 17 18  2  0  0  0
 17 55  1  0  0  0
 18 19  1  0  0  0
 18 56  1  0  0  0
 19 20  1  0  0  0
 19 21  2  0  0  0
 21 22  1  0  0  0
 23 24  1  0  0  0
 23 28  2  0  0  0
 24 25  2  0  0  0
 24 57  1  0  0  0
 25 26  1  0  0  0
 25 29  1  0  0  0
 26 27  2  0  0  0
 26 58  1  0  0  0
 27 28  1  0  0  0
 27 59  1  0  0  0
 29 30  2  0  0  0
 29 35  1  0  0  0
 30 31  1  0  0  0
 30 60  1  0  0  0
 31 32  2  0  0  0
 31 61  1  0  0  0
 32 33  1  0  0  0
 32 34  1  0  0  0
 34 35  2  0  0  0
 34 62  1  0  0  0
 35 36  1  0  0  0
 36 37  1  0  0  0
 36 63  1  0  0  0
 37 38  2  0  0  0
M  END
> <chembl_id>
CHEMBL4110550

> <chembl_pref_name>
None

> <i_m_ct_stereo_status>
1

> <s_m_source_file>
sdf/actives_sanitized.sdf

> <i_m_source_file_index>
292

> <i_lp_mmshare_version>
49012

> <i_f3d_flags>
0

> <s_epik_input>
bjFbY0hdW2NIXWMoW2NIXWMxMiljM2MoW2NIXWMoRilbY0hdW2NIXTMpW05IXUMoPU8pW0NASF0oW0NIM10pW0NIMl1bQ0gyXVtDSDJdW0NAQEhdMk40W0NIMl1bQ0gyXUMoPVtDSF1DND1PKWM1YyhGKVtjSF1bY0hdYyhDbCljNUY=

> <s_epik_cmdline>
J2VwaWtfcHl0aG9uJywgJy1waHQnLCAnMC41JywgJy1waCcsICc3LjUnLCAnLW50JywgJy1tYScsICcyMDAnLCAnLWltYWUnLCAnPGluZmlsZS5tYWU+JywgJy1vbWFlJywgJzxvdXRmaWxlLm1hZT4n

> <r_lp_tautomer_probability>
1

> <r_epik_Ionization_Penalty>
  0.0001

> <r_epik_Ionization_Penalty_Charging>
  0.0000

> <r_epik_Ionization_Penalty_Neutral>
  0.0001

> <r_epik_State_Penalty>
 -0.0000

> <r_epik_Charging_Adjusted_Penalty>
0

> <i_epik_Tot_Q>
0

> <i_epik_Tot_abs_Q>
0

> <s_lp_Force_Field>
OPLS3e

> <r_lp_Energy>
92.781776

> <b_lp_Chiralities_Consistent>
1

> <s_lp_Variant>
sdf/actives_sanitized.sdf:292-1

$$$$
